* HSPICE file created from 10T_32x32_magic_flattened.ext - technology: sky130A
.lib /import/angmar1/repos/openpdk/share/pdk/sky130A/libs.tech/ngspice/sky130.lib.spice tt

.subckt x10T_32x32_magic_flattened RBL1_0 RBL0_0 RBL1_1 RBL0_1 RBL1_2 RBL0_2 RBL1_3
+ RBL0_3 RBL1_4 RBL0_4 RBL1_5 RBL0_5 RBL1_6 RBL0_6 RBL1_7 RBL0_7 RBL1_8 RBL0_8 RBL1_9
+ RBL0_9 RBL1_10 RBL0_10 RBL1_11 RBL0_11 RBL1_12 RBL0_12 RBL1_13 RBL0_13 RBL1_14 RBL0_14
+ RBL1_15 RBL0_15 WWL_0 RWL_0 WWL_1 RWL_1 WWL_2 RWL_2 WWL_3 RWL_3 WWL_4 RWL_4 WWL_5
+ RWL_5 WWL_6 RWL_6 WWL_7 RWL_7 WWL_8 RWL_8 WWL_9 RWL_9 WWL_10 RWL_10 WWL_11 RWL_11
+ WWL_12 RWL_12 WWL_13 RWL_13 WWL_14 RWL_14 WWL_15 RWL_15 WWL_16 RWL_16 WWL_17 RWL_17
+ WWL_18 RWL_18 WWL_19 RWL_19 WWL_20 RWL_20 WWL_21 RWL_21 WWL_22 RWL_22 WWL_23 RWL_23
+ WWL_24 RWL_24 WWL_25 RWL_25 WWL_26 RWL_26 WWL_27 RWL_27 WWL_28 RWL_28 WWL_29 RWL_29
+ WWL_30 RWL_30 WWL_31 RWL_31 RBL1_16 RBL0_16 RBL1_17 RBL0_17 RBL1_18 RBL0_18 RBL1_19
+ RBL0_19 RBL1_20 RBL0_20 RBL1_21 RBL0_21 RBL1_22 RBL0_22 RBL1_23 RBL0_23 RBL1_24
+ RBL0_24 RBL1_25 RBL0_25 RBL1_26 RBL0_26 RBL1_27 RBL0_27 RBL1_28 RBL0_28 RBL1_29
+ RBL0_29 RBL1_30 RBL0_30 RBL1_31 RBL0_31 WBL_0 WBLb_0 WBL_1 WBLb_1 WBL_2 WBLb_2 WBL_3
+ WBLb_19 WBL_4 WBLb_4 WBL_5 WBLb_5 WBL_22 WBLb_6 WBL_7 WBLb_23 WBL_24 WBLb_8 WBL_25
+ WBLb_9 WBL_26 WBLb_10 WBL_11 WBLb_11 WBL_12 WBLb_12 WBL_13 WBLb_13 WBL_14 WBLb_30
+ WBL_15 WBLb_15 VDD GND
M1000 GND x0/junc1 x0/RWL1_junc GND sky130_fd_pr__nfet_01v8 w=1 l=0.15

M1001 x1/RWL0_junc x1/junc0 GND GND sky130_fd_pr__nfet_01v8 w=1 l=0.15

M1002 x2/junc1 WWL_22 WBLb_18 GND sky130_fd_pr__nfet_01v8 w=1 l=0.15

M1003 x3/junc0 x3/junc1 VDD VDD sky130_fd_pr__pfet_01v8 w=1 l=0.15

M1004 x4/RWL1_junc RWL_16 RBL1_28 GND sky130_fd_pr__nfet_01v8 w=1 l=0.15

M1005 x5/RWL0_junc x5/junc0 GND GND sky130_fd_pr__nfet_01v8 w=1 l=0.15

M1006 x6/junc1 WWL_18 WBLb_22 GND sky130_fd_pr__nfet_01v8 w=1 l=0.15

M1007 x7/RWL1_junc RWL_1 RBL1_7 GND sky130_fd_pr__nfet_01v8 w=1 l=0.15

M1008 RBL0_13 RWL_2 x8/RWL0_junc GND sky130_fd_pr__nfet_01v8 w=1 l=0.15

M1009 WBL_14 WWL_12 x9/junc0 GND sky130_fd_pr__nfet_01v8 w=1 l=0.15

M1010 x10/RWL0_junc x10/junc0 GND GND sky130_fd_pr__nfet_01v8 w=1 l=0.15

M1011 WBL_5 WWL_20 x11/junc0 GND sky130_fd_pr__nfet_01v8 w=1 l=0.15

M1012 x12/junc0 x12/junc1 GND GND sky130_fd_pr__nfet_01v8 w=1 l=0.15

M1013 x13/junc0 x13/junc1 VDD VDD sky130_fd_pr__pfet_01v8 w=1 l=0.15

M1014 x14/RWL0_junc x14/junc0 GND GND sky130_fd_pr__nfet_01v8 w=1 l=0.15

M1015 x15/junc0 x15/junc1 VDD VDD sky130_fd_pr__pfet_01v8 w=1 l=0.15

M1016 GND x16/junc0 x16/junc1 GND sky130_fd_pr__nfet_01v8 w=1 l=0.15

M1017 x17/junc0 x17/junc1 VDD VDD sky130_fd_pr__pfet_01v8 w=1 l=0.15

M1018 GND x18/junc1 x18/RWL1_junc GND sky130_fd_pr__nfet_01v8 w=1 l=0.15

M1019 VDD x19/junc0 x19/junc1 VDD sky130_fd_pr__pfet_01v8 w=1 l=0.15

M1020 GND x20/junc1 x20/RWL1_junc GND sky130_fd_pr__nfet_01v8 w=1 l=0.15

M1021 GND x21/junc1 x21/RWL1_junc GND sky130_fd_pr__nfet_01v8 w=1 l=0.15

M1022 GND x22/junc0 x22/junc1 GND sky130_fd_pr__nfet_01v8 w=1 l=0.15

M1023 x23/RWL1_junc RWL_3 RBL1_5 GND sky130_fd_pr__nfet_01v8 w=1 l=0.15

M1024 x24/RWL0_junc x24/junc0 GND GND sky130_fd_pr__nfet_01v8 w=1 l=0.15

M1025 x25/RWL0_junc x25/junc0 GND GND sky130_fd_pr__nfet_01v8 w=1 l=0.15

M1026 x26/RWL0_junc x26/junc0 GND GND sky130_fd_pr__nfet_01v8 w=1 l=0.15

M1027 x27/RWL0_junc x27/junc0 GND GND sky130_fd_pr__nfet_01v8 w=1 l=0.15

M1028 GND x28/junc0 x28/junc1 GND sky130_fd_pr__nfet_01v8 w=1 l=0.15

M1029 x29/junc0 x29/junc1 VDD VDD sky130_fd_pr__pfet_01v8 w=1 l=0.15

M1030 VDD x30/junc0 x30/junc1 VDD sky130_fd_pr__pfet_01v8 w=1 l=0.15

M1031 VDD x31/junc0 x31/junc1 VDD sky130_fd_pr__pfet_01v8 w=1 l=0.15

M1032 x32/junc1 WWL_19 WBLb_9 GND sky130_fd_pr__nfet_01v8 w=1 l=0.15

M1033 RBL0_22 RWL_6 x33/RWL0_junc GND sky130_fd_pr__nfet_01v8 w=1 l=0.15

M1034 GND x34/junc1 x34/RWL1_junc GND sky130_fd_pr__nfet_01v8 w=1 l=0.15

M1035 WBL_23 WWL_16 x35/junc0 GND sky130_fd_pr__nfet_01v8 w=1 l=0.15

M1036 RBL0_7 RWL_20 x36/RWL0_junc GND sky130_fd_pr__nfet_01v8 w=1 l=0.15

M1037 GND x37/junc1 x37/RWL1_junc GND sky130_fd_pr__nfet_01v8 w=1 l=0.15

M1038 x38/junc0 x38/junc1 GND GND sky130_fd_pr__nfet_01v8 w=1 l=0.15

M1039 RBL0_11 RWL_16 x39/RWL0_junc GND sky130_fd_pr__nfet_01v8 w=1 l=0.15

M1040 GND x40/junc0 x40/junc1 GND sky130_fd_pr__nfet_01v8 w=1 l=0.15

M1041 RBL0_15 RWL_24 x41/RWL0_junc GND sky130_fd_pr__nfet_01v8 w=1 l=0.15

M1042 x42/junc0 x42/junc1 GND GND sky130_fd_pr__nfet_01v8 w=1 l=0.15

M1043 RBL0_0 RWL_17 x43/RWL0_junc GND sky130_fd_pr__nfet_01v8 w=1 l=0.15

M1044 VDD x44/junc0 x44/junc1 VDD sky130_fd_pr__pfet_01v8 w=1 l=0.15

M1045 x45/junc1 WWL_25 WBLb_3 GND sky130_fd_pr__nfet_01v8 w=1 l=0.15

M1046 x46/junc0 x46/junc1 VDD VDD sky130_fd_pr__pfet_01v8 w=1 l=0.15

M1047 GND x47/junc1 x47/RWL1_junc GND sky130_fd_pr__nfet_01v8 w=1 l=0.15

M1048 x48/RWL1_junc RWL_19 RBL1_13 GND sky130_fd_pr__nfet_01v8 w=1 l=0.15

M1049 x49/RWL0_junc x49/junc0 GND GND sky130_fd_pr__nfet_01v8 w=1 l=0.15

M1050 GND WWL_30 GND GND sky130_fd_pr__nfet_01v8 w=1 l=0.15

M1051 x50/RWL1_junc RWL_24 RBL1_1 GND sky130_fd_pr__nfet_01v8 w=1 l=0.15

M1052 x51/RWL0_junc x51/junc0 GND GND sky130_fd_pr__nfet_01v8 w=1 l=0.15

M1053 x52/junc1 WWL_15 WBLb_27 GND sky130_fd_pr__nfet_01v8 w=1 l=0.15

M1054 VDD x53/junc0 x53/junc1 VDD sky130_fd_pr__pfet_01v8 w=1 l=0.15

M1055 GND x54/junc1 x54/RWL1_junc GND sky130_fd_pr__nfet_01v8 w=1 l=0.15

M1056 x55/junc1 WWL_23 WBLb_18 GND sky130_fd_pr__nfet_01v8 w=1 l=0.15

M1057 VDD x56/junc0 x56/junc1 VDD sky130_fd_pr__pfet_01v8 w=1 l=0.15

M1058 x57/RWL0_junc x57/junc0 GND GND sky130_fd_pr__nfet_01v8 w=1 l=0.15

M1059 x58/junc1 WWL_28 WBLb_4 GND sky130_fd_pr__nfet_01v8 w=1 l=0.15

M1060 x59/RWL0_junc x59/junc0 GND GND sky130_fd_pr__nfet_01v8 w=1 l=0.15

M1061 x60/junc1 WWL_0 WBLb_2 GND sky130_fd_pr__nfet_01v8 w=1 l=0.15

M1062 RBL0_13 x61/RWL1 x62/RWL0_junc GND sky130_fd_pr__nfet_01v8 w=1 l=0.15

M1063 WBL_14 WWL_13 x63/junc0 GND sky130_fd_pr__nfet_01v8 w=1 l=0.15

M1064 x64/RWL0_junc x64/junc0 GND GND sky130_fd_pr__nfet_01v8 w=1 l=0.15

M1065 x65/RWL1_junc RWL_27 RBL1_18 GND sky130_fd_pr__nfet_01v8 w=1 l=0.15

M1066 x66/junc0 x66/junc1 GND GND sky130_fd_pr__nfet_01v8 w=1 l=0.15

M1067 x67/junc0 x67/junc1 VDD VDD sky130_fd_pr__pfet_01v8 w=1 l=0.15

M1068 x68/junc0 x68/junc1 GND GND sky130_fd_pr__nfet_01v8 w=1 l=0.15

M1069 x69/junc0 x69/junc1 VDD VDD sky130_fd_pr__pfet_01v8 w=1 l=0.15

M1070 x70/junc0 x70/junc1 VDD VDD sky130_fd_pr__pfet_01v8 w=1 l=0.15

M1071 WBL_31 WWL_29 x71/junc0 GND sky130_fd_pr__nfet_01v8 w=1 l=0.15

M1072 RBL0_11 RWL_31 x72/RWL0_junc GND sky130_fd_pr__nfet_01v8 w=1 l=0.15

M1073 x73/RWL1_junc RWL_0 RBL1_10 GND sky130_fd_pr__nfet_01v8 w=1 l=0.15

M1074 GND x74/junc0 x74/junc1 GND sky130_fd_pr__nfet_01v8 w=1 l=0.15

M1075 x75/junc0 x75/junc1 GND GND sky130_fd_pr__nfet_01v8 w=1 l=0.15

M1076 RBL0_7 RWL_9 x76/RWL0_junc GND sky130_fd_pr__nfet_01v8 w=1 l=0.15

M1077 GND x77/junc1 x77/RWL1_junc GND sky130_fd_pr__nfet_01v8 w=1 l=0.15

M1078 GND x78/junc1 x78/RWL1_junc GND sky130_fd_pr__nfet_01v8 w=1 l=0.15

M1079 GND x79/junc1 x79/RWL1_junc GND sky130_fd_pr__nfet_01v8 w=1 l=0.15

M1080 x80/RWL0_junc x80/junc0 GND GND sky130_fd_pr__nfet_01v8 w=1 l=0.15

M1081 x81/RWL0_junc x81/junc0 GND GND sky130_fd_pr__nfet_01v8 w=1 l=0.15

M1082 GND x82/junc0 x82/junc1 GND sky130_fd_pr__nfet_01v8 w=1 l=0.15

M1083 GND x83/junc0 x83/junc1 GND sky130_fd_pr__nfet_01v8 w=1 l=0.15

M1084 x84/junc1 WWL_30 WBLb_27 GND sky130_fd_pr__nfet_01v8 w=1 l=0.15

M1085 x85/junc0 x85/junc1 VDD VDD sky130_fd_pr__pfet_01v8 w=1 l=0.15

M1086 x86/junc0 x86/junc1 VDD VDD sky130_fd_pr__pfet_01v8 w=1 l=0.15

M1087 VDD x87/junc0 x87/junc1 VDD sky130_fd_pr__pfet_01v8 w=1 l=0.15

M1088 VDD x88/junc0 x88/junc1 VDD sky130_fd_pr__pfet_01v8 w=1 l=0.15

M1089 x89/junc1 WWL_20 WBLb_9 GND sky130_fd_pr__nfet_01v8 w=1 l=0.15

M1090 GND x90/junc1 x90/RWL1_junc GND sky130_fd_pr__nfet_01v8 w=1 l=0.15

M1091 WBL_27 WWL_25 x91/junc0 GND sky130_fd_pr__nfet_01v8 w=1 l=0.15

M1092 GND x92/junc1 x92/RWL1_junc GND sky130_fd_pr__nfet_01v8 w=1 l=0.15

M1093 GND x93/junc0 x93/junc1 GND sky130_fd_pr__nfet_01v8 w=1 l=0.15

M1094 WBL_31 WWL_21 x94/junc0 GND sky130_fd_pr__nfet_01v8 w=1 l=0.15

M1095 x95/RWL1_junc RWL_20 RBL1_17 GND sky130_fd_pr__nfet_01v8 w=1 l=0.15

M1096 RBL0_15 RWL_25 x96/RWL0_junc GND sky130_fd_pr__nfet_01v8 w=1 l=0.15

M1097 x97/junc0 x97/junc1 GND GND sky130_fd_pr__nfet_01v8 w=1 l=0.15

M1098 x98/junc0 x98/junc1 GND GND sky130_fd_pr__nfet_01v8 w=1 l=0.15

M1099 x99/junc1 WWL_26 WBLb_3 GND sky130_fd_pr__nfet_01v8 w=1 l=0.15

M1100 RBL0_0 RWL_18 x100/RWL0_junc GND sky130_fd_pr__nfet_01v8 w=1 l=0.15

M1101 GND x101/junc1 x101/RWL1_junc GND sky130_fd_pr__nfet_01v8 w=1 l=0.15

M1102 WBL_10 WWL_6 x102/junc0 GND sky130_fd_pr__nfet_01v8 w=1 l=0.15

M1103 x103/junc0 x103/junc1 VDD VDD sky130_fd_pr__pfet_01v8 w=1 l=0.15

M1104 GND x104/junc1 x104/RWL1_junc GND sky130_fd_pr__nfet_01v8 w=1 l=0.15

M1105 x105/junc0 x105/junc1 VDD VDD sky130_fd_pr__pfet_01v8 w=1 l=0.15

M1106 x106/RWL0_junc x106/junc0 GND GND sky130_fd_pr__nfet_01v8 w=1 l=0.15

M1107 x107/RWL1_junc RWL_25 RBL1_1 GND sky130_fd_pr__nfet_01v8 w=1 l=0.15

M1108 x108/junc1 WWL_16 WBLb_27 GND sky130_fd_pr__nfet_01v8 w=1 l=0.15

M1109 x109/junc1 WWL_24 WBLb_18 GND sky130_fd_pr__nfet_01v8 w=1 l=0.15

M1110 x110/RWL0_junc x110/junc0 GND GND sky130_fd_pr__nfet_01v8 w=1 l=0.15

M1111 VDD x111/junc0 x111/junc1 VDD sky130_fd_pr__pfet_01v8 w=1 l=0.15

M1112 x112/junc0 x112/junc1 VDD VDD sky130_fd_pr__pfet_01v8 w=1 l=0.15

M1113 x113/junc0 x113/junc1 VDD VDD sky130_fd_pr__pfet_01v8 w=1 l=0.15

M1114 GND x114/junc0 x114/junc1 GND sky130_fd_pr__nfet_01v8 w=1 l=0.15

M1115 x115/RWL0_junc x115/junc0 GND GND sky130_fd_pr__nfet_01v8 w=1 l=0.15

M1116 x116/junc1 WWL_1 WBLb_2 GND sky130_fd_pr__nfet_01v8 w=1 l=0.15

M1117 VDD x117/junc0 x117/junc1 VDD sky130_fd_pr__pfet_01v8 w=1 l=0.15

M1118 GND x118/junc1 x118/RWL1_junc GND sky130_fd_pr__nfet_01v8 w=1 l=0.15

M1119 x119/junc0 x119/junc1 GND GND sky130_fd_pr__nfet_01v8 w=1 l=0.15

M1120 x120/RWL0_junc x120/junc0 GND GND sky130_fd_pr__nfet_01v8 w=1 l=0.15

M1121 GND x121/junc0 x121/junc1 GND sky130_fd_pr__nfet_01v8 w=1 l=0.15

M1122 x122/junc0 x122/junc1 VDD VDD sky130_fd_pr__pfet_01v8 w=1 l=0.15

M1123 x123/junc0 x123/junc1 GND GND sky130_fd_pr__nfet_01v8 w=1 l=0.15

M1124 x124/junc0 x124/junc1 VDD VDD sky130_fd_pr__pfet_01v8 w=1 l=0.15

M1125 WBL_19 WWL_10 x15/junc0 GND sky130_fd_pr__nfet_01v8 w=1 l=0.15

M1126 GND x125/junc1 x125/RWL1_junc GND sky130_fd_pr__nfet_01v8 w=1 l=0.15

M1127 RBL0_3 RWL_14 x126/RWL0_junc GND sky130_fd_pr__nfet_01v8 w=1 l=0.15

M1128 x127/RWL1_junc RWL_1 RBL1_10 GND sky130_fd_pr__nfet_01v8 w=1 l=0.15

M1129 RBL0_16 RWL_2 x128/RWL0_junc GND sky130_fd_pr__nfet_01v8 w=1 l=0.15

M1130 x129/junc0 x129/junc1 GND GND sky130_fd_pr__nfet_01v8 w=1 l=0.15

M1131 x130/RWL0_junc x130/junc0 GND GND sky130_fd_pr__nfet_01v8 w=1 l=0.15

M1132 x131/RWL0_junc x131/junc0 GND GND sky130_fd_pr__nfet_01v8 w=1 l=0.15

M1133 RBL0_27 RWL_4 x132/RWL0_junc GND sky130_fd_pr__nfet_01v8 w=1 l=0.15

M1134 GND x133/junc0 x133/junc1 GND sky130_fd_pr__nfet_01v8 w=1 l=0.15

M1135 x134/RWL1_junc RWL_9 RBL1_17 GND sky130_fd_pr__nfet_01v8 w=1 l=0.15

M1136 GND x135/junc0 x135/junc1 GND sky130_fd_pr__nfet_01v8 w=1 l=0.15

M1137 x136/junc1 WWL_31 WBLb_27 GND sky130_fd_pr__nfet_01v8 w=1 l=0.15

M1138 GND x137/junc0 x137/junc1 GND sky130_fd_pr__nfet_01v8 w=1 l=0.15

M1139 x138/RWL1_junc RWL_13 RBL1_9 GND sky130_fd_pr__nfet_01v8 w=1 l=0.15

M1140 VDD x139/junc0 x139/junc1 VDD sky130_fd_pr__pfet_01v8 w=1 l=0.15

M1141 WBL_1 WWL_17 x29/junc0 GND sky130_fd_pr__nfet_01v8 w=1 l=0.15

M1142 GND x140/junc1 x140/RWL1_junc GND sky130_fd_pr__nfet_01v8 w=1 l=0.15

M1143 GND x141/junc0 x141/junc1 GND sky130_fd_pr__nfet_01v8 w=1 l=0.15

M1144 WBL_27 WWL_26 x142/junc0 GND sky130_fd_pr__nfet_01v8 w=1 l=0.15

M1145 RBL0_21 RWL_10 x143/RWL0_junc GND sky130_fd_pr__nfet_01v8 w=1 l=0.15

M1146 GND x144/junc1 x144/RWL1_junc GND sky130_fd_pr__nfet_01v8 w=1 l=0.15

M1147 x145/junc0 x145/junc1 VDD VDD sky130_fd_pr__pfet_01v8 w=1 l=0.15

M1148 RBL0_15 RWL_26 x146/RWL0_junc GND sky130_fd_pr__nfet_01v8 w=1 l=0.15

M1149 x147/junc0 x147/junc1 GND GND sky130_fd_pr__nfet_01v8 w=1 l=0.15

M1150 RBL0_25 RWL_6 x148/RWL0_junc GND sky130_fd_pr__nfet_01v8 w=1 l=0.15

M1151 GND x149/junc1 x149/RWL1_junc GND sky130_fd_pr__nfet_01v8 w=1 l=0.15

M1152 x150/junc1 WWL_27 WBLb_3 GND sky130_fd_pr__nfet_01v8 w=1 l=0.15

M1153 x151/junc0 x151/junc1 GND GND sky130_fd_pr__nfet_01v8 w=1 l=0.15

M1154 RBL0_0 RWL_19 x152/RWL0_junc GND sky130_fd_pr__nfet_01v8 w=1 l=0.15

M1155 WBL_10 WWL_7 x46/junc0 GND sky130_fd_pr__nfet_01v8 w=1 l=0.15

M1156 GND x153/junc1 x153/RWL1_junc GND sky130_fd_pr__nfet_01v8 w=1 l=0.15

M1157 x154/RWL1_junc RWL_17 RBL1_22 GND sky130_fd_pr__nfet_01v8 w=1 l=0.15

M1158 VDD x155/junc0 x155/junc1 VDD sky130_fd_pr__pfet_01v8 w=1 l=0.15

M1159 RBL0_14 RWL_28 x156/RWL0_junc GND sky130_fd_pr__nfet_01v8 w=1 l=0.15

M1160 VDD x157/junc0 x157/junc1 VDD sky130_fd_pr__pfet_01v8 w=1 l=0.15

M1161 x158/RWL1_junc RWL_26 RBL1_1 GND sky130_fd_pr__nfet_01v8 w=1 l=0.15

M1162 x159/RWL0_junc x159/junc0 GND GND sky130_fd_pr__nfet_01v8 w=1 l=0.15

M1163 x160/junc0 x160/junc1 GND GND sky130_fd_pr__nfet_01v8 w=1 l=0.15

M1164 x161/junc0 x161/junc1 VDD VDD sky130_fd_pr__pfet_01v8 w=1 l=0.15

M1165 x162/junc0 x162/junc1 VDD VDD sky130_fd_pr__pfet_01v8 w=1 l=0.15

M1166 RBL0_7 RWL_31 x149/RWL0_junc GND sky130_fd_pr__nfet_01v8 w=1 l=0.15

M1167 x163/junc1 WWL_25 WBLb_31 GND sky130_fd_pr__nfet_01v8 w=1 l=0.15

M1168 VDD x164/junc0 x164/junc1 VDD sky130_fd_pr__pfet_01v8 w=1 l=0.15

M1169 x165/junc0 x165/junc1 VDD VDD sky130_fd_pr__pfet_01v8 w=1 l=0.15

M1170 x166/junc0 x166/junc1 GND GND sky130_fd_pr__nfet_01v8 w=1 l=0.15

M1171 x167/RWL0_junc x167/junc0 GND GND sky130_fd_pr__nfet_01v8 w=1 l=0.15

M1172 GND x168/junc0 x168/junc1 GND sky130_fd_pr__nfet_01v8 w=1 l=0.15

M1173 x169/junc0 x169/junc1 VDD VDD sky130_fd_pr__pfet_01v8 w=1 l=0.15

M1174 x170/junc1 WWL_6 WBLb_14 GND sky130_fd_pr__nfet_01v8 w=1 l=0.15

M1175 WBL_28 WWL_3 x69/junc0 GND sky130_fd_pr__nfet_01v8 w=1 l=0.15

M1176 RBL0_12 RWL_7 x87/RWL0_junc GND sky130_fd_pr__nfet_01v8 w=1 l=0.15

M1177 x171/junc1 WWL_14 WBLb_5 GND sky130_fd_pr__nfet_01v8 w=1 l=0.15

M1178 GND x172/junc1 x172/RWL1_junc GND sky130_fd_pr__nfet_01v8 w=1 l=0.15

M1179 WBL_19 WWL_11 x70/junc0 GND sky130_fd_pr__nfet_01v8 w=1 l=0.15

M1180 RBL0_3 RWL_15 x173/RWL0_junc GND sky130_fd_pr__nfet_01v8 w=1 l=0.15

M1181 RBL0_16 x61/RWL1 x61/RWL0_junc GND sky130_fd_pr__nfet_01v8 w=1 l=0.15

M1182 x174/junc0 x174/junc1 GND GND sky130_fd_pr__nfet_01v8 w=1 l=0.15

M1183 x95/RWL0_junc x95/junc0 GND GND sky130_fd_pr__nfet_01v8 w=1 l=0.15

M1184 x175/RWL0_junc x175/junc0 GND GND sky130_fd_pr__nfet_01v8 w=1 l=0.15

M1185 GND x176/junc0 x176/junc1 GND sky130_fd_pr__nfet_01v8 w=1 l=0.15

M1186 x177/RWL0_junc x177/junc0 GND GND sky130_fd_pr__nfet_01v8 w=1 l=0.15

M1187 GND x178/junc0 x178/junc1 GND sky130_fd_pr__nfet_01v8 w=1 l=0.15

M1188 x179/RWL1_junc RWL_10 RBL1_14 GND sky130_fd_pr__nfet_01v8 w=1 l=0.15

M1189 VDD x180/junc0 x180/junc1 VDD sky130_fd_pr__pfet_01v8 w=1 l=0.15

M1190 RBL0_27 RWL_5 x181/RWL0_junc GND sky130_fd_pr__nfet_01v8 w=1 l=0.15

M1191 VDD x182/junc0 x182/junc1 VDD sky130_fd_pr__pfet_01v8 w=1 l=0.15

M1192 GND x183/junc1 x183/RWL1_junc GND sky130_fd_pr__nfet_01v8 w=1 l=0.15

M1193 GND x184/junc1 x184/RWL1_junc GND sky130_fd_pr__nfet_01v8 w=1 l=0.15

M1194 GND x185/junc0 x185/junc1 GND sky130_fd_pr__nfet_01v8 w=1 l=0.15

M1195 GND x186/junc0 x186/junc1 GND sky130_fd_pr__nfet_01v8 w=1 l=0.15

M1196 x187/junc0 x187/junc1 GND GND sky130_fd_pr__nfet_01v8 w=1 l=0.15

M1197 WBL_1 WWL_18 x86/junc0 GND sky130_fd_pr__nfet_01v8 w=1 l=0.15

M1198 x188/RWL1_junc RWL_30 RBL1_14 GND sky130_fd_pr__nfet_01v8 w=1 l=0.15

M1199 x189/junc1 WWL_10 WBLb_23 GND sky130_fd_pr__nfet_01v8 w=1 l=0.15

M1200 x190/junc0 x190/junc1 GND GND sky130_fd_pr__nfet_01v8 w=1 l=0.15

M1201 VDD x191/junc0 x191/junc1 VDD sky130_fd_pr__pfet_01v8 w=1 l=0.15

M1202 x192/junc0 x192/junc1 GND GND sky130_fd_pr__nfet_01v8 w=1 l=0.15

M1203 x193/junc0 x193/junc1 GND GND sky130_fd_pr__nfet_01v8 w=1 l=0.15

M1204 WBL_27 WWL_27 x194/junc0 GND sky130_fd_pr__nfet_01v8 w=1 l=0.15

M1205 VDD x195/junc0 x195/junc1 VDD sky130_fd_pr__pfet_01v8 w=1 l=0.15

M1206 RBL0_21 RWL_11 x196/RWL0_junc GND sky130_fd_pr__nfet_01v8 w=1 l=0.15

M1207 WBL_10 WWL_8 x103/junc0 GND sky130_fd_pr__nfet_01v8 w=1 l=0.15

M1208 GND x197/junc0 x197/junc1 GND sky130_fd_pr__nfet_01v8 w=1 l=0.15

M1209 x198/RWL1_junc RWL_14 RBL1_23 GND sky130_fd_pr__nfet_01v8 w=1 l=0.15

M1210 RBL0_10 RWL_30 x199/RWL0_junc GND sky130_fd_pr__nfet_01v8 w=1 l=0.15

M1211 x6/RWL1_junc RWL_18 RBL1_22 GND sky130_fd_pr__nfet_01v8 w=1 l=0.15

M1212 RBL0_14 RWL_29 x200/RWL0_junc GND sky130_fd_pr__nfet_01v8 w=1 l=0.15

M1213 VDD x201/junc0 x201/junc1 VDD sky130_fd_pr__pfet_01v8 w=1 l=0.15

M1214 x202/junc0 x202/junc1 VDD VDD sky130_fd_pr__pfet_01v8 w=1 l=0.15

M1215 x203/junc0 x203/junc1 GND GND sky130_fd_pr__nfet_01v8 w=1 l=0.15

M1216 x204/junc0 x204/junc1 GND GND sky130_fd_pr__nfet_01v8 w=1 l=0.15

M1217 GND x205/junc0 x205/junc1 GND sky130_fd_pr__nfet_01v8 w=1 l=0.15

M1218 WBL_13 WWL_6 x112/junc0 GND sky130_fd_pr__nfet_01v8 w=1 l=0.15

M1219 x206/junc0 x206/junc1 VDD VDD sky130_fd_pr__pfet_01v8 w=1 l=0.15

M1220 x0/junc0 x0/junc1 GND GND sky130_fd_pr__nfet_01v8 w=1 l=0.15

M1221 WBL_4 WWL_14 x113/junc0 GND sky130_fd_pr__nfet_01v8 w=1 l=0.15

M1222 GND x207/junc1 x207/RWL1_junc GND sky130_fd_pr__nfet_01v8 w=1 l=0.15

M1223 x208/junc1 WWL_26 WBLb_31 GND sky130_fd_pr__nfet_01v8 w=1 l=0.15

M1224 x134/RWL0_junc x134/junc0 GND GND sky130_fd_pr__nfet_01v8 w=1 l=0.15

M1225 VDD x209/junc0 x209/junc1 VDD sky130_fd_pr__pfet_01v8 w=1 l=0.15

M1226 RBL0_29 RWL_27 x210/RWL0_junc GND sky130_fd_pr__nfet_01v8 w=1 l=0.15

M1227 VDD x211/junc0 x211/junc1 VDD sky130_fd_pr__pfet_01v8 w=1 l=0.15

M1228 x212/junc1 WWL_28 WBLb_1 GND sky130_fd_pr__nfet_01v8 w=1 l=0.15

M1229 x213/RWL0_junc x213/junc0 GND GND sky130_fd_pr__nfet_01v8 w=1 l=0.15

M1230 GND x214/junc0 x214/junc1 GND sky130_fd_pr__nfet_01v8 w=1 l=0.15

M1231 x215/junc1 WWL_7 WBLb_14 GND sky130_fd_pr__nfet_01v8 w=1 l=0.15

M1232 WBL_28 WWL_4 x124/junc0 GND sky130_fd_pr__nfet_01v8 w=1 l=0.15

M1233 RBL0_12 RWL_8 x139/RWL0_junc GND sky130_fd_pr__nfet_01v8 w=1 l=0.15

M1234 RBL0_3 RWL_16 x216/RWL0_junc GND sky130_fd_pr__nfet_01v8 w=1 l=0.15

M1235 x217/junc0 x217/junc1 VDD VDD sky130_fd_pr__pfet_01v8 w=1 l=0.15

M1236 GND x218/junc0 x218/junc1 GND sky130_fd_pr__nfet_01v8 w=1 l=0.15

M1237 GND x219/junc1 x219/RWL1_junc GND sky130_fd_pr__nfet_01v8 w=1 l=0.15

M1238 x220/RWL1_junc RWL_11 RBL1_14 GND sky130_fd_pr__nfet_01v8 w=1 l=0.15

M1239 x221/junc0 x221/junc1 GND GND sky130_fd_pr__nfet_01v8 w=1 l=0.15

M1240 GND x222/junc0 x222/junc1 GND sky130_fd_pr__nfet_01v8 w=1 l=0.15

M1241 x223/junc0 x223/junc1 GND GND sky130_fd_pr__nfet_01v8 w=1 l=0.15

M1242 x224/junc0 x224/junc1 GND GND sky130_fd_pr__nfet_01v8 w=1 l=0.15

M1243 RBL0_6 RWL_14 x225/RWL0_junc GND sky130_fd_pr__nfet_01v8 w=1 l=0.15

M1244 x226/junc0 x226/junc1 GND GND sky130_fd_pr__nfet_01v8 w=1 l=0.15

M1245 RBL0_20 RWL_28 x227/RWL0_junc GND sky130_fd_pr__nfet_01v8 w=1 l=0.15

M1246 VDD x228/junc0 x228/junc1 VDD sky130_fd_pr__pfet_01v8 w=1 l=0.15

M1247 x229/junc1 WWL_15 WBLb_19 GND sky130_fd_pr__nfet_01v8 w=1 l=0.15

M1248 VDD x230/junc0 x230/junc1 VDD sky130_fd_pr__pfet_01v8 w=1 l=0.15

M1249 GND x231/junc1 x231/RWL1_junc GND sky130_fd_pr__nfet_01v8 w=1 l=0.15

M1250 x232/RWL1_junc RWL_17 RBL1_8 GND sky130_fd_pr__nfet_01v8 w=1 l=0.15

M1251 x233/RWL0_junc x233/junc0 GND GND sky130_fd_pr__nfet_01v8 w=1 l=0.15

M1252 x234/junc1 WWL_29 WBLb_24 GND sky130_fd_pr__nfet_01v8 w=1 l=0.15

M1253 x235/junc0 x235/junc1 GND GND sky130_fd_pr__nfet_01v8 w=1 l=0.15

M1254 RBL0_30 RWL_4 x236/RWL0_junc GND sky130_fd_pr__nfet_01v8 w=1 l=0.15

M1255 x237/junc1 WWL_11 WBLb_23 GND sky130_fd_pr__nfet_01v8 w=1 l=0.15

M1256 VDD x238/junc0 x238/junc1 VDD sky130_fd_pr__pfet_01v8 w=1 l=0.15

M1257 x239/junc0 x239/junc1 GND GND sky130_fd_pr__nfet_01v8 w=1 l=0.15

M1258 RBL0_21 RWL_12 x240/RWL0_junc GND sky130_fd_pr__nfet_01v8 w=1 l=0.15

M1259 VDD x241/junc0 x241/junc1 VDD sky130_fd_pr__pfet_01v8 w=1 l=0.15

M1260 WBL_15 WWL_5 x242/junc0 GND sky130_fd_pr__nfet_01v8 w=1 l=0.15

M1261 GND x243/junc0 x243/junc1 GND sky130_fd_pr__nfet_01v8 w=1 l=0.15

M1262 RBL0_3 RWL_31 x244/RWL0_junc GND sky130_fd_pr__nfet_01v8 w=1 l=0.15

M1263 x245/RWL1_junc RWL_15 RBL1_23 GND sky130_fd_pr__nfet_01v8 w=1 l=0.15

M1264 x246/junc1 WWL_22 WBLb_1 GND sky130_fd_pr__nfet_01v8 w=1 l=0.15

M1265 x247/RWL1_junc RWL_19 RBL1_22 GND sky130_fd_pr__nfet_01v8 w=1 l=0.15

M1266 x248/junc0 x248/junc1 GND GND sky130_fd_pr__nfet_01v8 w=1 l=0.15

M1267 x249/junc0 x249/junc1 GND GND sky130_fd_pr__nfet_01v8 w=1 l=0.15

M1268 x60/RWL1_junc RWL_0 RBL1_2 GND sky130_fd_pr__nfet_01v8 w=1 l=0.15

M1269 x138/junc0 x138/junc1 VDD VDD sky130_fd_pr__pfet_01v8 w=1 l=0.15

M1270 x250/junc0 x250/junc1 GND GND sky130_fd_pr__nfet_01v8 w=1 l=0.15

M1271 x251/RWL1_junc RWL_31 RBL1_23 GND sky130_fd_pr__nfet_01v8 w=1 l=0.15

M1272 x252/junc0 x252/junc1 GND GND sky130_fd_pr__nfet_01v8 w=1 l=0.15

M1273 GND x253/junc0 x253/junc1 GND sky130_fd_pr__nfet_01v8 w=1 l=0.15

M1274 x231/junc0 x231/junc1 GND GND sky130_fd_pr__nfet_01v8 w=1 l=0.15

M1275 VDD x254/junc0 x254/junc1 VDD sky130_fd_pr__pfet_01v8 w=1 l=0.15

M1276 x54/junc0 x54/junc1 GND GND sky130_fd_pr__nfet_01v8 w=1 l=0.15

M1277 WBL_13 WWL_7 x161/junc0 GND sky130_fd_pr__nfet_01v8 w=1 l=0.15

M1278 x255/RWL0_junc x255/junc0 GND GND sky130_fd_pr__nfet_01v8 w=1 l=0.15

M1279 GND x256/junc1 x256/RWL1_junc GND sky130_fd_pr__nfet_01v8 w=1 l=0.15

M1280 x257/junc1 WWL_27 WBLb_31 GND sky130_fd_pr__nfet_01v8 w=1 l=0.15

M1281 GND x258/junc0 x258/junc1 GND sky130_fd_pr__nfet_01v8 w=1 l=0.15

M1282 WBL_24 WWL_9 x165/junc0 GND sky130_fd_pr__nfet_01v8 w=1 l=0.15

M1283 GND x259/junc1 x259/RWL1_junc GND sky130_fd_pr__nfet_01v8 w=1 l=0.15

M1284 GND x260/junc0 x260/junc1 GND sky130_fd_pr__nfet_01v8 w=1 l=0.15

M1285 GND x261/junc0 x261/junc1 GND sky130_fd_pr__nfet_01v8 w=1 l=0.15

M1286 x262/junc1 WWL_8 WBLb_14 GND sky130_fd_pr__nfet_01v8 w=1 l=0.15

M1287 GND x263/junc0 x263/junc1 GND sky130_fd_pr__nfet_01v8 w=1 l=0.15

M1288 GND x264/junc1 x264/RWL1_junc GND sky130_fd_pr__nfet_01v8 w=1 l=0.15

M1289 GND x265/junc1 x265/RWL1_junc GND sky130_fd_pr__nfet_01v8 w=1 l=0.15

M1290 x266/junc0 x266/junc1 VDD VDD sky130_fd_pr__pfet_01v8 w=1 l=0.15

M1291 GND x267/junc1 x267/RWL1_junc GND sky130_fd_pr__nfet_01v8 w=1 l=0.15

M1292 WBL_18 WWL_15 x268/junc0 GND sky130_fd_pr__nfet_01v8 w=1 l=0.15

M1293 GND x269/junc0 x269/junc1 GND sky130_fd_pr__nfet_01v8 w=1 l=0.15

M1294 x270/junc1 WWL_6 WBLb_17 GND sky130_fd_pr__nfet_01v8 w=1 l=0.15

M1295 x9/RWL1_junc RWL_12 RBL1_14 GND sky130_fd_pr__nfet_01v8 w=1 l=0.15

M1296 x271/junc0 x271/junc1 GND GND sky130_fd_pr__nfet_01v8 w=1 l=0.15

M1297 x272/junc0 x272/junc1 GND GND sky130_fd_pr__nfet_01v8 w=1 l=0.15

M1298 x273/junc1 WWL_14 WBLb_8 GND sky130_fd_pr__nfet_01v8 w=1 l=0.15

M1299 x274/junc0 x274/junc1 GND GND sky130_fd_pr__nfet_01v8 w=1 l=0.15

M1300 RBL0_6 RWL_15 x275/RWL0_junc GND sky130_fd_pr__nfet_01v8 w=1 l=0.15

M1301 x276/RWL0_junc x276/junc0 GND GND sky130_fd_pr__nfet_01v8 w=1 l=0.15

M1302 GND x277/junc0 x277/junc1 GND sky130_fd_pr__nfet_01v8 w=1 l=0.15

M1303 RBL0_20 RWL_29 x278/RWL0_junc GND sky130_fd_pr__nfet_01v8 w=1 l=0.15

M1304 x279/junc0 x279/junc1 VDD VDD sky130_fd_pr__pfet_01v8 w=1 l=0.15

M1305 x280/junc0 x280/junc1 VDD VDD sky130_fd_pr__pfet_01v8 w=1 l=0.15

M1306 VDD x281/junc0 x281/junc1 VDD sky130_fd_pr__pfet_01v8 w=1 l=0.15

M1307 x282/junc1 WWL_16 WBLb_19 GND sky130_fd_pr__nfet_01v8 w=1 l=0.15

M1308 GND x283/junc1 x283/RWL1_junc GND sky130_fd_pr__nfet_01v8 w=1 l=0.15

M1309 x284/junc0 x284/junc1 VDD VDD sky130_fd_pr__pfet_01v8 w=1 l=0.15

M1310 x285/RWL1_junc RWL_18 RBL1_8 GND sky130_fd_pr__nfet_01v8 w=1 l=0.15

M1311 RBL0_30 RWL_5 x286/RWL0_junc GND sky130_fd_pr__nfet_01v8 w=1 l=0.15

M1312 GND x287/junc0 x287/junc1 GND sky130_fd_pr__nfet_01v8 w=1 l=0.15

M1313 VDD x288/junc0 x288/junc1 VDD sky130_fd_pr__pfet_01v8 w=1 l=0.15

M1314 x289/junc0 x289/junc1 GND GND sky130_fd_pr__nfet_01v8 w=1 l=0.15

M1315 x290/RWL1_junc RWL_20 RBL1_19 GND sky130_fd_pr__nfet_01v8 w=1 l=0.15

M1316 x291/junc1 WWL_23 WBLb_1 GND sky130_fd_pr__nfet_01v8 w=1 l=0.15

M1317 x35/RWL1_junc RWL_16 RBL1_23 GND sky130_fd_pr__nfet_01v8 w=1 l=0.15

M1318 x292/RWL0_junc x292/junc0 GND GND sky130_fd_pr__nfet_01v8 w=1 l=0.15

M1319 x84/RWL1_junc RWL_30 RBL1_27 GND sky130_fd_pr__nfet_01v8 w=1 l=0.15

M1320 x116/RWL1_junc RWL_1 RBL1_2 GND sky130_fd_pr__nfet_01v8 w=1 l=0.15

M1321 RBL0_8 RWL_2 x293/RWL0_junc GND sky130_fd_pr__nfet_01v8 w=1 l=0.15

M1322 WBL_9 WWL_12 x202/junc0 GND sky130_fd_pr__nfet_01v8 w=1 l=0.15

M1323 x294/RWL0_junc x294/junc0 GND GND sky130_fd_pr__nfet_01v8 w=1 l=0.15

M1324 VDD x295/junc0 x295/junc1 VDD sky130_fd_pr__pfet_01v8 w=1 l=0.15

M1325 WBL_13 WWL_8 x206/junc0 GND sky130_fd_pr__nfet_01v8 w=1 l=0.15

M1326 x296/RWL0_junc x296/junc0 GND GND sky130_fd_pr__nfet_01v8 w=1 l=0.15

M1327 RBL0_23 RWL_30 x297/RWL0_junc GND sky130_fd_pr__nfet_01v8 w=1 l=0.15

M1328 GND x298/junc1 x298/RWL1_junc GND sky130_fd_pr__nfet_01v8 w=1 l=0.15

M1329 GND x299/junc1 x299/RWL1_junc GND sky130_fd_pr__nfet_01v8 w=1 l=0.15

M1330 GND x300/junc0 x300/junc1 GND sky130_fd_pr__nfet_01v8 w=1 l=0.15

M1331 x301/RWL0_junc x301/junc0 GND GND sky130_fd_pr__nfet_01v8 w=1 l=0.15

M1332 GND x297/junc1 x297/RWL1_junc GND sky130_fd_pr__nfet_01v8 w=1 l=0.15

M1333 VDD x91/junc0 x91/junc1 VDD sky130_fd_pr__pfet_01v8 w=1 l=0.15

M1334 GND x302/junc1 x302/RWL1_junc GND sky130_fd_pr__nfet_01v8 w=1 l=0.15

M1335 GND x303/junc0 x303/junc1 GND sky130_fd_pr__nfet_01v8 w=1 l=0.15

M1336 VDD x304/junc0 x304/junc1 VDD sky130_fd_pr__pfet_01v8 w=1 l=0.15

M1337 VDD x305/junc0 x305/junc1 VDD sky130_fd_pr__pfet_01v8 w=1 l=0.15

M1338 x306/junc1 WWL_19 WBLb_4 GND sky130_fd_pr__nfet_01v8 w=1 l=0.15

M1339 RBL0_17 RWL_6 x270/RWL0_junc GND sky130_fd_pr__nfet_01v8 w=1 l=0.15

M1340 GND x307/junc1 x307/RWL1_junc GND sky130_fd_pr__nfet_01v8 w=1 l=0.15

M1341 WBL_18 WWL_16 x217/junc0 GND sky130_fd_pr__nfet_01v8 w=1 l=0.15

M1342 x308/junc1 WWL_7 WBLb_17 GND sky130_fd_pr__nfet_01v8 w=1 l=0.15

M1343 x210/RWL0_junc x210/junc0 GND GND sky130_fd_pr__nfet_01v8 w=1 l=0.15

M1344 RBL0_2 RWL_20 x241/RWL0_junc GND sky130_fd_pr__nfet_01v8 w=1 l=0.15

M1345 x309/junc0 x309/junc1 GND GND sky130_fd_pr__nfet_01v8 w=1 l=0.15

M1346 x310/junc0 x310/junc1 VDD VDD sky130_fd_pr__pfet_01v8 w=1 l=0.15

M1347 x311/junc0 x311/junc1 VDD VDD sky130_fd_pr__pfet_01v8 w=1 l=0.15

M1348 RBL0_6 RWL_16 x312/RWL0_junc GND sky130_fd_pr__nfet_01v8 w=1 l=0.15

M1349 GND x313/junc0 x313/junc1 GND sky130_fd_pr__nfet_01v8 w=1 l=0.15

M1350 GND x314/junc0 x314/junc1 GND sky130_fd_pr__nfet_01v8 w=1 l=0.15

M1351 x315/RWL1_junc RWL_9 RBL1_19 GND sky130_fd_pr__nfet_01v8 w=1 l=0.15

M1352 VDD x316/junc0 x316/junc1 VDD sky130_fd_pr__pfet_01v8 w=1 l=0.15

M1353 x317/junc1 WWL_9 WBLb_28 GND sky130_fd_pr__nfet_01v8 w=1 l=0.15

M1354 RBL0_10 RWL_24 x34/RWL0_junc GND sky130_fd_pr__nfet_01v8 w=1 l=0.15

M1355 x318/junc0 x318/junc1 GND GND sky130_fd_pr__nfet_01v8 w=1 l=0.15

M1356 GND x319/junc1 x319/RWL1_junc GND sky130_fd_pr__nfet_01v8 w=1 l=0.15

M1357 VDD x320/junc0 x320/junc1 VDD sky130_fd_pr__pfet_01v8 w=1 l=0.15

M1358 x321/junc0 x321/junc1 VDD VDD sky130_fd_pr__pfet_01v8 w=1 l=0.15

M1359 GND x322/junc1 x322/RWL1_junc GND sky130_fd_pr__nfet_01v8 w=1 l=0.15

M1360 x323/RWL1_junc RWL_19 RBL1_8 GND sky130_fd_pr__nfet_01v8 w=1 l=0.15

M1361 x324/RWL1_junc RWL_31 RBL1_19 GND sky130_fd_pr__nfet_01v8 w=1 l=0.15

M1362 x325/RWL0_junc x325/junc0 GND GND sky130_fd_pr__nfet_01v8 w=1 l=0.15

M1363 x326/junc0 x326/junc1 GND GND sky130_fd_pr__nfet_01v8 w=1 l=0.15

M1364 VDD x327/junc0 x327/junc1 VDD sky130_fd_pr__pfet_01v8 w=1 l=0.15

M1365 x328/junc1 WWL_15 WBLb_22 GND sky130_fd_pr__nfet_01v8 w=1 l=0.15

M1366 x329/RWL0_junc x329/junc0 GND GND sky130_fd_pr__nfet_01v8 w=1 l=0.15

M1367 WBL_20 WWL_3 x147/junc0 GND sky130_fd_pr__nfet_01v8 w=1 l=0.15

M1368 x50/junc1 WWL_24 WBLb_1 GND sky130_fd_pr__nfet_01v8 w=1 l=0.15

M1369 WBL_30 WWL_28 x117/junc0 GND sky130_fd_pr__nfet_01v8 w=1 l=0.15

M1370 x330/RWL0_junc x330/junc0 GND GND sky130_fd_pr__nfet_01v8 w=1 l=0.15

M1371 RBL0_8 x61/RWL1 x331/RWL0_junc GND sky130_fd_pr__nfet_01v8 w=1 l=0.15

M1372 WBL_9 WWL_13 x138/junc0 GND sky130_fd_pr__nfet_01v8 w=1 l=0.15

M1373 x332/RWL0_junc x332/junc0 GND GND sky130_fd_pr__nfet_01v8 w=1 l=0.15

M1374 x333/junc0 x333/junc1 GND GND sky130_fd_pr__nfet_01v8 w=1 l=0.15

M1375 VDD x334/junc0 x334/junc1 VDD sky130_fd_pr__pfet_01v8 w=1 l=0.15

M1376 x335/junc0 x335/junc1 VDD VDD sky130_fd_pr__pfet_01v8 w=1 l=0.15

M1377 x336/junc0 x336/junc1 GND GND sky130_fd_pr__nfet_01v8 w=1 l=0.15

M1378 x337/RWL1_junc RWL_0 RBL1_5 GND sky130_fd_pr__nfet_01v8 w=1 l=0.15

M1379 RBL0_2 RWL_9 x338/RWL0_junc GND sky130_fd_pr__nfet_01v8 w=1 l=0.15

M1380 GND x339/junc1 x339/RWL1_junc GND sky130_fd_pr__nfet_01v8 w=1 l=0.15

M1381 GND x340/junc1 x340/RWL1_junc GND sky130_fd_pr__nfet_01v8 w=1 l=0.15

M1382 GND x341/junc0 x341/junc1 GND sky130_fd_pr__nfet_01v8 w=1 l=0.15

M1383 GND x342/junc0 x342/junc1 GND sky130_fd_pr__nfet_01v8 w=1 l=0.15

M1384 GND x343/junc0 x343/junc1 GND sky130_fd_pr__nfet_01v8 w=1 l=0.15

M1385 VDD x344/junc0 x344/junc1 VDD sky130_fd_pr__pfet_01v8 w=1 l=0.15

M1386 x345/junc1 WWL_12 WBLb_13 GND sky130_fd_pr__nfet_01v8 w=1 l=0.15

M1387 x346/junc1 WWL_30 WBLb_6 GND sky130_fd_pr__nfet_01v8 w=1 l=0.15

M1388 x82/junc0 x82/junc1 VDD VDD sky130_fd_pr__pfet_01v8 w=1 l=0.15

M1389 VDD x347/junc0 x347/junc1 VDD sky130_fd_pr__pfet_01v8 w=1 l=0.15

M1390 VDD x348/junc0 x348/junc1 VDD sky130_fd_pr__pfet_01v8 w=1 l=0.15

M1391 x349/junc1 WWL_20 WBLb_4 GND sky130_fd_pr__nfet_01v8 w=1 l=0.15

M1392 x350/junc1 WWL_8 WBLb_17 GND sky130_fd_pr__nfet_01v8 w=1 l=0.15

M1393 x351/junc0 x351/junc1 VDD VDD sky130_fd_pr__pfet_01v8 w=1 l=0.15

M1394 x352/junc0 x352/junc1 VDD VDD sky130_fd_pr__pfet_01v8 w=1 l=0.15

M1395 x353/junc0 x353/junc1 VDD VDD sky130_fd_pr__pfet_01v8 w=1 l=0.15

M1396 WBL_22 WWL_25 x354/junc0 GND sky130_fd_pr__nfet_01v8 w=1 l=0.15

M1397 x355/RWL1_junc RWL_2 RBL1_28 GND sky130_fd_pr__nfet_01v8 w=1 l=0.15

M1398 x356/RWL1_junc RWL_6 RBL1_27 GND sky130_fd_pr__nfet_01v8 w=1 l=0.15

M1399 GND x357/junc0 x357/junc1 GND sky130_fd_pr__nfet_01v8 w=1 l=0.15

M1400 GND x358/junc0 x358/junc1 GND sky130_fd_pr__nfet_01v8 w=1 l=0.15

M1401 WBL_26 WWL_21 x280/junc0 GND sky130_fd_pr__nfet_01v8 w=1 l=0.15

M1402 x359/junc0 x359/junc1 GND GND sky130_fd_pr__nfet_01v8 w=1 l=0.15

M1403 VDD x360/junc0 x360/junc1 VDD sky130_fd_pr__pfet_01v8 w=1 l=0.15

M1404 RBL0_10 RWL_25 x90/RWL0_junc GND sky130_fd_pr__nfet_01v8 w=1 l=0.15

M1405 x361/junc0 x361/junc1 GND GND sky130_fd_pr__nfet_01v8 w=1 l=0.15

M1406 x362/junc0 x362/junc1 VDD VDD sky130_fd_pr__pfet_01v8 w=1 l=0.15

M1407 GND x363/junc1 x363/RWL1_junc GND sky130_fd_pr__nfet_01v8 w=1 l=0.15

M1408 GND x364/junc1 x364/RWL1_junc GND sky130_fd_pr__nfet_01v8 w=1 l=0.15

M1409 WBL_5 WWL_6 x284/junc0 GND sky130_fd_pr__nfet_01v8 w=1 l=0.15

M1410 x365/junc0 x365/junc1 VDD VDD sky130_fd_pr__pfet_01v8 w=1 l=0.15

M1411 x366/RWL0_junc x366/junc0 GND GND sky130_fd_pr__nfet_01v8 w=1 l=0.15

M1412 x367/junc0 x367/junc1 GND GND sky130_fd_pr__nfet_01v8 w=1 l=0.15

M1413 VDD x368/junc0 x368/junc1 VDD sky130_fd_pr__pfet_01v8 w=1 l=0.15

M1414 x369/junc1 WWL_16 WBLb_22 GND sky130_fd_pr__nfet_01v8 w=1 l=0.15

M1415 x233/junc0 x233/junc1 VDD VDD sky130_fd_pr__pfet_01v8 w=1 l=0.15

M1416 RBL0_13 RWL_0 x370/RWL0_junc GND sky130_fd_pr__nfet_01v8 w=1 l=0.15

M1417 WBL_20 WWL_4 x371/junc0 GND sky130_fd_pr__nfet_01v8 w=1 l=0.15

M1418 VDD x372/junc0 x372/junc1 VDD sky130_fd_pr__pfet_01v8 w=1 l=0.15

M1419 x373/RWL0_junc x373/junc0 GND GND sky130_fd_pr__nfet_01v8 w=1 l=0.15

M1420 x374/junc0 x374/junc1 GND GND sky130_fd_pr__nfet_01v8 w=1 l=0.15

M1421 GND x375/junc0 x375/junc1 GND sky130_fd_pr__nfet_01v8 w=1 l=0.15

M1422 x376/junc0 x376/junc1 VDD VDD sky130_fd_pr__pfet_01v8 w=1 l=0.15

M1423 GND x377/junc1 x377/RWL1_junc GND sky130_fd_pr__nfet_01v8 w=1 l=0.15

M1424 GND x378/junc1 x378/RWL1_junc GND sky130_fd_pr__nfet_01v8 w=1 l=0.15

M1425 x379/RWL1_junc RWL_1 RBL1_5 GND sky130_fd_pr__nfet_01v8 w=1 l=0.15

M1426 RBL0_11 RWL_2 x380/RWL0_junc GND sky130_fd_pr__nfet_01v8 w=1 l=0.15

M1427 x381/RWL0_junc x381/junc0 GND GND sky130_fd_pr__nfet_01v8 w=1 l=0.15

M1428 x382/junc0 x382/junc1 VDD VDD sky130_fd_pr__pfet_01v8 w=1 l=0.15

M1429 GND x383/junc1 x383/RWL1_junc GND sky130_fd_pr__nfet_01v8 w=1 l=0.15

M1430 x384/RWL0_junc x384/junc0 GND GND sky130_fd_pr__nfet_01v8 w=1 l=0.15

M1431 x385/junc0 x385/junc1 VDD VDD sky130_fd_pr__pfet_01v8 w=1 l=0.15

M1432 x386/RWL0_junc x386/junc0 GND GND sky130_fd_pr__nfet_01v8 w=1 l=0.15

M1433 x387/RWL0_junc x387/junc0 GND GND sky130_fd_pr__nfet_01v8 w=1 l=0.15

M1434 x388/junc0 x388/junc1 VDD VDD sky130_fd_pr__pfet_01v8 w=1 l=0.15

M1435 x389/junc1 WWL_3 WBLb_24 GND sky130_fd_pr__nfet_01v8 w=1 l=0.15

M1436 RBL0_22 RWL_4 x390/RWL0_junc GND sky130_fd_pr__nfet_01v8 w=1 l=0.15

M1437 GND x391/junc1 x391/RWL1_junc GND sky130_fd_pr__nfet_01v8 w=1 l=0.15

M1438 GND x392/junc0 x392/junc1 GND sky130_fd_pr__nfet_01v8 w=1 l=0.15

M1439 GND x393/junc0 x393/junc1 GND sky130_fd_pr__nfet_01v8 w=1 l=0.15

M1440 x394/junc1 WWL_31 WBLb_6 GND sky130_fd_pr__nfet_01v8 w=1 l=0.15

M1441 GND x395/junc0 x395/junc1 GND sky130_fd_pr__nfet_01v8 w=1 l=0.15

M1442 x396/RWL1_junc RWL_13 RBL1_4 GND sky130_fd_pr__nfet_01v8 w=1 l=0.15

M1443 VDD x397/junc0 x397/junc1 VDD sky130_fd_pr__pfet_01v8 w=1 l=0.15

M1444 VDD x398/junc0 x398/junc1 VDD sky130_fd_pr__pfet_01v8 w=1 l=0.15

M1445 x399/junc1 WWL_13 WBLb_13 GND sky130_fd_pr__nfet_01v8 w=1 l=0.15

M1446 GND x400/junc0 x400/junc1 GND sky130_fd_pr__nfet_01v8 w=1 l=0.15

M1447 x141/junc0 x141/junc1 VDD VDD sky130_fd_pr__pfet_01v8 w=1 l=0.15

M1448 WBL_22 WWL_26 x311/junc0 GND sky130_fd_pr__nfet_01v8 w=1 l=0.15

M1449 x401/junc0 x401/junc1 VDD VDD sky130_fd_pr__pfet_01v8 w=1 l=0.15

M1450 WBL_30 WWL_22 x310/junc0 GND sky130_fd_pr__nfet_01v8 w=1 l=0.15

M1451 x402/RWL0_junc x402/junc0 GND GND sky130_fd_pr__nfet_01v8 w=1 l=0.15

M1452 x69/RWL1_junc x389/RWL1 RBL1_28 GND sky130_fd_pr__nfet_01v8 w=1 l=0.15

M1453 x212/RWL1_junc RWL_28 RBL1_1 GND sky130_fd_pr__nfet_01v8 w=1 l=0.15

M1454 GND x403/junc1 x403/RWL1_junc GND sky130_fd_pr__nfet_01v8 w=1 l=0.15

M1455 GND x404/junc0 x404/junc1 GND sky130_fd_pr__nfet_01v8 w=1 l=0.15

M1456 x405/junc0 x405/junc1 GND GND sky130_fd_pr__nfet_01v8 w=1 l=0.15

M1457 RBL0_10 RWL_26 x140/RWL0_junc GND sky130_fd_pr__nfet_01v8 w=1 l=0.15

M1458 x406/junc0 x406/junc1 GND GND sky130_fd_pr__nfet_01v8 w=1 l=0.15

M1459 GND x407/junc1 x407/RWL1_junc GND sky130_fd_pr__nfet_01v8 w=1 l=0.15

M1460 x408/junc0 x408/junc1 VDD VDD sky130_fd_pr__pfet_01v8 w=1 l=0.15

M1461 WBL_5 WWL_7 x321/junc0 GND sky130_fd_pr__nfet_01v8 w=1 l=0.15

M1462 VDD x409/junc0 x409/junc1 VDD sky130_fd_pr__pfet_01v8 w=1 l=0.15

M1463 x410/RWL0_junc x410/junc0 GND GND sky130_fd_pr__nfet_01v8 w=1 l=0.15

M1464 x411/junc0 x411/junc1 GND GND sky130_fd_pr__nfet_01v8 w=1 l=0.15

M1465 x412/RWL0_junc x412/junc0 GND GND sky130_fd_pr__nfet_01v8 w=1 l=0.15

M1466 x413/junc0 x413/junc1 VDD VDD sky130_fd_pr__pfet_01v8 w=1 l=0.15

M1467 RBL0_13 RWL_1 x414/RWL0_junc GND sky130_fd_pr__nfet_01v8 w=1 l=0.15

M1468 x257/RWL1_junc RWL_27 RBL1_31 GND sky130_fd_pr__nfet_01v8 w=1 l=0.15

M1469 x415/junc1 WWL_25 WBLb_26 GND sky130_fd_pr__nfet_01v8 w=1 l=0.15

M1470 VDD x416/junc0 x416/junc1 VDD sky130_fd_pr__pfet_01v8 w=1 l=0.15

M1471 x417/RWL0_junc x417/junc0 GND GND sky130_fd_pr__nfet_01v8 w=1 l=0.15

M1472 x315/junc0 x315/junc1 VDD VDD sky130_fd_pr__pfet_01v8 w=1 l=0.15

M1473 x418/junc0 x418/junc1 GND GND sky130_fd_pr__nfet_01v8 w=1 l=0.15

M1474 GND x419/junc0 x419/junc1 GND sky130_fd_pr__nfet_01v8 w=1 l=0.15

M1475 WBL_23 WWL_3 x335/junc0 GND sky130_fd_pr__nfet_01v8 w=1 l=0.15

M1476 x420/junc0 x420/junc1 VDD VDD sky130_fd_pr__pfet_01v8 w=1 l=0.15

M1477 x421/junc1 WWL_6 WBLb_9 GND sky130_fd_pr__nfet_01v8 w=1 l=0.15

M1478 x422/junc0 x422/junc1 GND GND sky130_fd_pr__nfet_01v8 w=1 l=0.15

M1479 GND x14/junc1 x14/RWL1_junc GND sky130_fd_pr__nfet_01v8 w=1 l=0.15

M1480 RBL0_7 RWL_7 x347/RWL0_junc GND sky130_fd_pr__nfet_01v8 w=1 l=0.15

M1481 GND x423/junc1 x423/RWL1_junc GND sky130_fd_pr__nfet_01v8 w=1 l=0.15

M1482 RBL0_11 x61/RWL1 x424/RWL0_junc GND sky130_fd_pr__nfet_01v8 w=1 l=0.15

M1483 x425/junc0 x425/junc1 VDD VDD sky130_fd_pr__pfet_01v8 w=1 l=0.15

M1484 x426/RWL0_junc x426/junc0 GND GND sky130_fd_pr__nfet_01v8 w=1 l=0.15

M1485 GND x427/junc0 x427/junc1 GND sky130_fd_pr__nfet_01v8 w=1 l=0.15

M1486 x428/junc0 x428/junc1 VDD VDD sky130_fd_pr__pfet_01v8 w=1 l=0.15

M1487 x429/RWL1_junc RWL_10 RBL1_9 GND sky130_fd_pr__nfet_01v8 w=1 l=0.15

M1488 x430/junc0 x430/junc1 VDD VDD sky130_fd_pr__pfet_01v8 w=1 l=0.15

M1489 x431/junc0 x431/junc1 VDD VDD sky130_fd_pr__pfet_01v8 w=1 l=0.15

M1490 x432/junc1 WWL_4 WBLb_24 GND sky130_fd_pr__nfet_01v8 w=1 l=0.15

M1491 RBL0_22 RWL_5 x433/RWL0_junc GND sky130_fd_pr__nfet_01v8 w=1 l=0.15

M1492 VDD x434/junc0 x434/junc1 VDD sky130_fd_pr__pfet_01v8 w=1 l=0.15

M1493 GND x26/junc1 x26/RWL1_junc GND sky130_fd_pr__nfet_01v8 w=1 l=0.15

M1494 GND x27/junc1 x27/RWL1_junc GND sky130_fd_pr__nfet_01v8 w=1 l=0.15

M1495 x112/RWL1_junc RWL_6 RBL1_13 GND sky130_fd_pr__nfet_01v8 w=1 l=0.15

M1496 GND x435/junc1 x435/RWL1_junc GND sky130_fd_pr__nfet_01v8 w=1 l=0.15

M1497 GND x436/junc0 x436/junc1 GND sky130_fd_pr__nfet_01v8 w=1 l=0.15

M1498 GND x437/junc0 x437/junc1 GND sky130_fd_pr__nfet_01v8 w=1 l=0.15

M1499 VDD x242/junc0 x242/junc1 VDD sky130_fd_pr__pfet_01v8 w=1 l=0.15

M1500 WBL_23 WWL_29 x230/junc0 GND sky130_fd_pr__nfet_01v8 w=1 l=0.15

M1501 WBL_31 WWL_19 x352/junc0 GND sky130_fd_pr__nfet_01v8 w=1 l=0.15

M1502 x438/junc1 WWL_10 WBLb_18 GND sky130_fd_pr__nfet_01v8 w=1 l=0.15

M1503 WBL_30 WWL_23 x351/junc0 GND sky130_fd_pr__nfet_01v8 w=1 l=0.15

M1504 VDD x42/junc0 x42/junc1 VDD sky130_fd_pr__pfet_01v8 w=1 l=0.15

M1505 x439/junc0 x439/junc1 GND GND sky130_fd_pr__nfet_01v8 w=1 l=0.15

M1506 x440/junc0 x440/junc1 GND GND sky130_fd_pr__nfet_01v8 w=1 l=0.15

M1507 WBL_22 WWL_27 x353/junc0 GND sky130_fd_pr__nfet_01v8 w=1 l=0.15

M1508 x441/RWL1_junc RWL_29 RBL1_1 GND sky130_fd_pr__nfet_01v8 w=1 l=0.15

M1509 x442/junc0 x442/junc1 GND GND sky130_fd_pr__nfet_01v8 w=1 l=0.15

M1510 WBL_14 WWL_0 x362/junc0 GND sky130_fd_pr__nfet_01v8 w=1 l=0.15

M1511 RBL0_29 RWL_31 x443/RWL0_junc GND sky130_fd_pr__nfet_01v8 w=1 l=0.15

M1512 WBL_5 WWL_8 x365/junc0 GND sky130_fd_pr__nfet_01v8 w=1 l=0.15

M1513 GND x444/junc0 x444/junc1 GND sky130_fd_pr__nfet_01v8 w=1 l=0.15

M1514 x445/RWL1_junc RWL_14 RBL1_18 GND sky130_fd_pr__nfet_01v8 w=1 l=0.15

M1515 x446/junc0 x446/junc1 VDD VDD sky130_fd_pr__pfet_01v8 w=1 l=0.15

M1516 VDD x447/junc0 x447/junc1 VDD sky130_fd_pr__pfet_01v8 w=1 l=0.15

M1517 x448/RWL0_junc x448/junc0 GND GND sky130_fd_pr__nfet_01v8 w=1 l=0.15

M1518 x449/junc0 x449/junc1 VDD VDD sky130_fd_pr__pfet_01v8 w=1 l=0.15

M1519 x450/junc0 x450/junc1 GND GND sky130_fd_pr__nfet_01v8 w=1 l=0.15

M1520 GND x451/junc0 x451/junc1 GND sky130_fd_pr__nfet_01v8 w=1 l=0.15

M1521 x452/junc0 x452/junc1 VDD VDD sky130_fd_pr__pfet_01v8 w=1 l=0.15

M1522 GND x57/junc1 x57/RWL1_junc GND sky130_fd_pr__nfet_01v8 w=1 l=0.15

M1523 GND x453/junc1 x453/RWL1_junc GND sky130_fd_pr__nfet_01v8 w=1 l=0.15

M1524 x454/junc1 WWL_26 WBLb_26 GND sky130_fd_pr__nfet_01v8 w=1 l=0.15

M1525 VDD x66/junc0 x66/junc1 VDD sky130_fd_pr__pfet_01v8 w=1 l=0.15

M1526 RBL0_24 RWL_27 x455/RWL0_junc GND sky130_fd_pr__nfet_01v8 w=1 l=0.15

M1527 VDD x456/junc0 x456/junc1 VDD sky130_fd_pr__pfet_01v8 w=1 l=0.15

M1528 VDD x68/junc0 x68/junc1 VDD sky130_fd_pr__pfet_01v8 w=1 l=0.15

M1529 x355/junc0 x355/junc1 VDD VDD sky130_fd_pr__pfet_01v8 w=1 l=0.15

M1530 RBL0_16 RWL_0 x457/RWL0_junc GND sky130_fd_pr__nfet_01v8 w=1 l=0.15

M1531 x458/junc1 WWL_7 WBLb_9 GND sky130_fd_pr__nfet_01v8 w=1 l=0.15

M1532 x459/junc0 x459/junc1 GND GND sky130_fd_pr__nfet_01v8 w=1 l=0.15

M1533 WBL_23 WWL_4 x376/junc0 GND sky130_fd_pr__nfet_01v8 w=1 l=0.15

M1534 RBL0_7 RWL_8 x398/RWL0_junc GND sky130_fd_pr__nfet_01v8 w=1 l=0.15

M1535 GND x460/junc0 x460/junc1 GND sky130_fd_pr__nfet_01v8 w=1 l=0.15

M1536 x308/RWL1_junc RWL_7 RBL1_17 GND sky130_fd_pr__nfet_01v8 w=1 l=0.15

M1537 GND x461/junc0 x461/junc1 GND sky130_fd_pr__nfet_01v8 w=1 l=0.15

M1538 GND x80/junc1 x80/RWL1_junc GND sky130_fd_pr__nfet_01v8 w=1 l=0.15

M1539 x462/RWL1_junc RWL_11 RBL1_9 GND sky130_fd_pr__nfet_01v8 w=1 l=0.15

M1540 x463/junc0 x463/junc1 VDD VDD sky130_fd_pr__pfet_01v8 w=1 l=0.15

M1541 WBL_16 WWL_22 x388/junc0 GND sky130_fd_pr__nfet_01v8 w=1 l=0.15

M1542 x464/junc0 x464/junc1 GND GND sky130_fd_pr__nfet_01v8 w=1 l=0.15

M1543 WBL_1 WWL_15 x465/junc0 GND sky130_fd_pr__nfet_01v8 w=1 l=0.15

M1544 GND x81/junc1 x81/RWL1_junc GND sky130_fd_pr__nfet_01v8 w=1 l=0.15

M1545 x466/RWL0_junc x466/junc0 GND GND sky130_fd_pr__nfet_01v8 w=1 l=0.15

M1546 VDD x467/junc0 x467/junc1 VDD sky130_fd_pr__pfet_01v8 w=1 l=0.15

M1547 x468/junc1 WWL_3 WBLb_27 GND sky130_fd_pr__nfet_01v8 w=1 l=0.15

M1548 x1/RWL1_junc RWL_17 RBL1_3 GND sky130_fd_pr__nfet_01v8 w=1 l=0.15

M1549 x118/RWL0_junc x118/junc0 GND GND sky130_fd_pr__nfet_01v8 w=1 l=0.15

M1550 x469/junc1 WWL_11 WBLb_18 GND sky130_fd_pr__nfet_01v8 w=1 l=0.15

M1551 WBL_30 WWL_24 x401/junc0 GND sky130_fd_pr__nfet_01v8 w=1 l=0.15

M1552 WBL_31 WWL_20 x141/junc0 GND sky130_fd_pr__nfet_01v8 w=1 l=0.15

M1553 x470/junc0 x470/junc1 GND GND sky130_fd_pr__nfet_01v8 w=1 l=0.15

M1554 RBL0_25 RWL_4 x471/RWL0_junc GND sky130_fd_pr__nfet_01v8 w=1 l=0.15

M1555 WBL_0 WWL_28 x288/junc0 GND sky130_fd_pr__nfet_01v8 w=1 l=0.15

M1556 WBL_10 WWL_5 x472/junc0 GND sky130_fd_pr__nfet_01v8 w=1 l=0.15

M1557 WBL_14 WWL_1 x408/junc0 GND sky130_fd_pr__nfet_01v8 w=1 l=0.15

M1558 x268/RWL1_junc RWL_15 RBL1_18 GND sky130_fd_pr__nfet_01v8 w=1 l=0.15

M1559 x473/junc0 x473/junc1 GND GND sky130_fd_pr__nfet_01v8 w=1 l=0.15

M1560 x474/junc0 x474/junc1 GND GND sky130_fd_pr__nfet_01v8 w=1 l=0.15

M1561 x475/RWL1_junc RWL_28 RBL1_10 GND sky130_fd_pr__nfet_01v8 w=1 l=0.15

M1562 x396/junc0 x396/junc1 VDD VDD sky130_fd_pr__pfet_01v8 w=1 l=0.15

M1563 x476/junc0 x476/junc1 GND GND sky130_fd_pr__nfet_01v8 w=1 l=0.15

M1564 GND x477/junc0 x477/junc1 GND sky130_fd_pr__nfet_01v8 w=1 l=0.15

M1565 VDD x478/junc0 x478/junc1 VDD sky130_fd_pr__pfet_01v8 w=1 l=0.15

M1566 x479/RWL0_junc x479/junc0 GND GND sky130_fd_pr__nfet_01v8 w=1 l=0.15

M1567 GND x480/junc1 x480/RWL1_junc GND sky130_fd_pr__nfet_01v8 w=1 l=0.15

M1568 x481/junc1 WWL_27 WBLb_26 GND sky130_fd_pr__nfet_01v8 w=1 l=0.15

M1569 VDD x119/junc0 x119/junc1 VDD sky130_fd_pr__pfet_01v8 w=1 l=0.15

M1570 x482/junc0 x482/junc1 VDD VDD sky130_fd_pr__pfet_01v8 w=1 l=0.15

M1571 x45/junc0 x45/junc1 VDD VDD sky130_fd_pr__pfet_01v8 w=1 l=0.15

M1572 GND x483/junc0 x483/junc1 GND sky130_fd_pr__nfet_01v8 w=1 l=0.15

M1573 x484/junc1 WWL_12 WBLb_5 GND sky130_fd_pr__nfet_01v8 w=1 l=0.15

M1574 RBL0_6 RWL_28 x485/RWL0_junc GND sky130_fd_pr__nfet_01v8 w=1 l=0.15

M1575 WBL_19 WWL_9 x315/junc0 GND sky130_fd_pr__nfet_01v8 w=1 l=0.15

M1576 GND x120/junc1 x120/RWL1_junc GND sky130_fd_pr__nfet_01v8 w=1 l=0.15

M1577 GND x486/junc0 x486/junc1 GND sky130_fd_pr__nfet_01v8 w=1 l=0.15

M1578 GND x487/junc0 x487/junc1 GND sky130_fd_pr__nfet_01v8 w=1 l=0.15

M1579 RBL0_16 RWL_1 x38/RWL0_junc GND sky130_fd_pr__nfet_01v8 w=1 l=0.15

M1580 x488/junc1 WWL_8 WBLb_9 GND sky130_fd_pr__nfet_01v8 w=1 l=0.15

M1581 x489/RWL0_junc x489/junc0 GND GND sky130_fd_pr__nfet_01v8 w=1 l=0.15

M1582 GND x490/junc1 x490/RWL1_junc GND sky130_fd_pr__nfet_01v8 w=1 l=0.15

M1583 x491/junc1 WWL_29 WBLb_10 GND sky130_fd_pr__nfet_01v8 w=1 l=0.15

M1584 GND x492/junc0 x492/junc1 GND sky130_fd_pr__nfet_01v8 w=1 l=0.15

M1585 GND x130/junc1 x130/RWL1_junc GND sky130_fd_pr__nfet_01v8 w=1 l=0.15

M1586 x350/RWL1_junc RWL_8 RBL1_17 GND sky130_fd_pr__nfet_01v8 w=1 l=0.15

M1587 GND x131/junc1 x131/RWL1_junc GND sky130_fd_pr__nfet_01v8 w=1 l=0.15

M1588 GND x493/junc0 x493/junc1 GND sky130_fd_pr__nfet_01v8 w=1 l=0.15

M1589 x202/RWL1_junc RWL_12 RBL1_9 GND sky130_fd_pr__nfet_01v8 w=1 l=0.15

M1590 WBL_16 WWL_23 x430/junc0 GND sky130_fd_pr__nfet_01v8 w=1 l=0.15

M1591 RBL0_15 RWL_13 x264/RWL0_junc GND sky130_fd_pr__nfet_01v8 w=1 l=0.15

M1592 x494/junc0 x494/junc1 GND GND sky130_fd_pr__nfet_01v8 w=1 l=0.15

M1593 RBL0_0 RWL_6 x495/RWL0_junc GND sky130_fd_pr__nfet_01v8 w=1 l=0.15

M1594 WBL_1 WWL_16 x431/junc0 GND sky130_fd_pr__nfet_01v8 w=1 l=0.15

M1595 x126/junc1 WWL_14 WBLb_3 GND sky130_fd_pr__nfet_01v8 w=1 l=0.15

M1596 x496/RWL0_junc x496/junc0 GND GND sky130_fd_pr__nfet_01v8 w=1 l=0.15

M1597 x497/RWL1_junc RWL_24 RBL1_12 GND sky130_fd_pr__nfet_01v8 w=1 l=0.15

M1598 GND x498/junc0 x498/junc1 GND sky130_fd_pr__nfet_01v8 w=1 l=0.15

M1599 VDD x499/junc0 x499/junc1 VDD sky130_fd_pr__pfet_01v8 w=1 l=0.15

M1600 x500/junc0 x500/junc1 VDD VDD sky130_fd_pr__pfet_01v8 w=1 l=0.15

M1601 x277/junc0 x277/junc1 VDD VDD sky130_fd_pr__pfet_01v8 w=1 l=0.15

M1602 VDD x501/junc0 x501/junc1 VDD sky130_fd_pr__pfet_01v8 w=1 l=0.15

M1603 x502/RWL1_junc RWL_13 RBL1_1 GND sky130_fd_pr__nfet_01v8 w=1 l=0.15

M1604 x132/junc1 WWL_4 WBLb_27 GND sky130_fd_pr__nfet_01v8 w=1 l=0.15

M1605 x51/RWL1_junc RWL_18 RBL1_3 GND sky130_fd_pr__nfet_01v8 w=1 l=0.15

M1606 RBL0_25 RWL_5 x503/RWL0_junc GND sky130_fd_pr__nfet_01v8 w=1 l=0.15

M1607 VDD x504/junc0 x504/junc1 VDD sky130_fd_pr__pfet_01v8 w=1 l=0.15

M1608 x505/junc0 x505/junc1 GND GND sky130_fd_pr__nfet_01v8 w=1 l=0.15

M1609 RBL0_28 RWL_17 x66/RWL0_junc GND sky130_fd_pr__nfet_01v8 w=1 l=0.15

M1610 RBL0_20 RWL_21 x283/RWL0_junc GND sky130_fd_pr__nfet_01v8 w=1 l=0.15

M1611 x506/RWL0_junc x506/junc0 GND GND sky130_fd_pr__nfet_01v8 w=1 l=0.15

M1612 x507/junc0 x507/junc1 GND GND sky130_fd_pr__nfet_01v8 w=1 l=0.15

M1613 VDD x160/junc0 x160/junc1 VDD sky130_fd_pr__pfet_01v8 w=1 l=0.15

M1614 x346/RWL1_junc RWL_30 RBL1_6 GND sky130_fd_pr__nfet_01v8 w=1 l=0.15

M1615 x508/junc0 x508/junc1 GND GND sky130_fd_pr__nfet_01v8 w=1 l=0.15

M1616 x217/RWL1_junc RWL_16 RBL1_18 GND sky130_fd_pr__nfet_01v8 w=1 l=0.15

M1617 GND x509/junc0 x509/junc1 GND sky130_fd_pr__nfet_01v8 w=1 l=0.15

M1618 x491/RWL1_junc RWL_29 RBL1_10 GND sky130_fd_pr__nfet_01v8 w=1 l=0.15

M1619 RBL0_3 RWL_2 x75/RWL0_junc GND sky130_fd_pr__nfet_01v8 w=1 l=0.15

M1620 WBL_4 WWL_12 x449/junc0 GND sky130_fd_pr__nfet_01v8 w=1 l=0.15

M1621 x308/RWL0_junc x308/junc0 GND GND sky130_fd_pr__nfet_01v8 w=1 l=0.15

M1622 VDD x510/junc0 x510/junc1 VDD sky130_fd_pr__pfet_01v8 w=1 l=0.15

M1623 x511/RWL0_junc x511/junc0 GND GND sky130_fd_pr__nfet_01v8 w=1 l=0.15

M1624 GND x512/junc0 x512/junc1 GND sky130_fd_pr__nfet_01v8 w=1 l=0.15

M1625 x513/junc0 x513/junc1 VDD VDD sky130_fd_pr__pfet_01v8 w=1 l=0.15

M1626 x514/junc1 WWL_5 WBLb_14 GND sky130_fd_pr__nfet_01v8 w=1 l=0.15

M1627 x515/junc0 x515/junc1 VDD VDD sky130_fd_pr__pfet_01v8 w=1 l=0.15

M1628 RBL0_2 RWL_30 x516/RWL0_junc GND sky130_fd_pr__nfet_01v8 w=1 l=0.15

M1629 WBL_28 WWL_2 x355/junc0 GND sky130_fd_pr__nfet_01v8 w=1 l=0.15

M1630 GND x517/junc1 x517/RWL1_junc GND sky130_fd_pr__nfet_01v8 w=1 l=0.15

M1631 GND x518/junc1 x518/RWL1_junc GND sky130_fd_pr__nfet_01v8 w=1 l=0.15

M1632 x519/junc1 WWL_13 WBLb_5 GND sky130_fd_pr__nfet_01v8 w=1 l=0.15

M1633 RBL0_6 RWL_29 x145/RWL0_junc GND sky130_fd_pr__nfet_01v8 w=1 l=0.15

M1634 GND x167/junc1 x167/RWL1_junc GND sky130_fd_pr__nfet_01v8 w=1 l=0.15

M1635 GND x516/junc1 x516/RWL1_junc GND sky130_fd_pr__nfet_01v8 w=1 l=0.15

M1636 x520/RWL0_junc x520/junc0 GND GND sky130_fd_pr__nfet_01v8 w=1 l=0.15

M1637 GND x521/junc0 x521/junc1 GND sky130_fd_pr__nfet_01v8 w=1 l=0.15

M1638 VDD x354/junc0 x354/junc1 VDD sky130_fd_pr__pfet_01v8 w=1 l=0.15

M1639 x522/junc0 x522/junc1 GND GND sky130_fd_pr__nfet_01v8 w=1 l=0.15

M1640 x523/junc0 x523/junc1 GND GND sky130_fd_pr__nfet_01v8 w=1 l=0.15

M1641 WBL_27 WWL_14 x524/junc0 GND sky130_fd_pr__nfet_01v8 w=1 l=0.15

M1642 VDD x525/junc0 x525/junc1 VDD sky130_fd_pr__pfet_01v8 w=1 l=0.15

M1643 GND x175/junc1 x175/RWL1_junc GND sky130_fd_pr__nfet_01v8 w=1 l=0.15

M1644 GND x177/junc1 x177/RWL1_junc GND sky130_fd_pr__nfet_01v8 w=1 l=0.15

M1645 x455/RWL0_junc x455/junc0 GND GND sky130_fd_pr__nfet_01v8 w=1 l=0.15

M1646 x526/junc0 x526/junc1 GND GND sky130_fd_pr__nfet_01v8 w=1 l=0.15

M1647 WBL_16 WWL_24 x463/junc0 GND sky130_fd_pr__nfet_01v8 w=1 l=0.15

M1648 x47/junc0 x47/junc1 VDD VDD sky130_fd_pr__pfet_01v8 w=1 l=0.15

M1649 x527/junc0 x527/junc1 VDD VDD sky130_fd_pr__pfet_01v8 w=1 l=0.15

M1650 x528/RWL0_junc x528/junc0 GND GND sky130_fd_pr__nfet_01v8 w=1 l=0.15

M1651 GND x529/junc0 x529/junc1 GND sky130_fd_pr__nfet_01v8 w=1 l=0.15

M1652 GND x530/junc0 x530/junc1 GND sky130_fd_pr__nfet_01v8 w=1 l=0.15

M1653 x531/RWL1_junc RWL_25 RBL1_12 GND sky130_fd_pr__nfet_01v8 w=1 l=0.15

M1654 GND x532/junc0 x532/junc1 GND sky130_fd_pr__nfet_01v8 w=1 l=0.15

M1655 VDD x192/junc0 x192/junc1 VDD sky130_fd_pr__pfet_01v8 w=1 l=0.15

M1656 x207/RWL0_junc x207/junc0 GND GND sky130_fd_pr__nfet_01v8 w=1 l=0.15

M1657 x533/junc1 WWL_9 WBLb_23 GND sky130_fd_pr__nfet_01v8 w=1 l=0.15

M1658 VDD x193/junc0 x193/junc1 VDD sky130_fd_pr__pfet_01v8 w=1 l=0.15

M1659 RBL0_5 RWL_24 x534/RWL0_junc GND sky130_fd_pr__nfet_01v8 w=1 l=0.15

M1660 VDD x535/junc0 x535/junc1 VDD sky130_fd_pr__pfet_01v8 w=1 l=0.15

M1661 x536/junc0 x536/junc1 GND GND sky130_fd_pr__nfet_01v8 w=1 l=0.15

M1662 x110/RWL1_junc RWL_19 RBL1_3 GND sky130_fd_pr__nfet_01v8 w=1 l=0.15

M1663 x537/junc0 x537/junc1 GND GND sky130_fd_pr__nfet_01v8 w=1 l=0.15

M1664 x538/junc1 WWL_17 WBLb_30 GND sky130_fd_pr__nfet_01v8 w=1 l=0.15

M1665 x539/RWL0_junc x539/junc0 GND GND sky130_fd_pr__nfet_01v8 w=1 l=0.15

M1666 x540/junc0 x540/junc1 GND GND sky130_fd_pr__nfet_01v8 w=1 l=0.15

M1667 VDD x541/junc0 x541/junc1 VDD sky130_fd_pr__pfet_01v8 w=1 l=0.15

M1668 RBL0_28 RWL_18 x119/RWL0_junc GND sky130_fd_pr__nfet_01v8 w=1 l=0.15

M1669 RBL0_29 RWL_14 x319/RWL0_junc GND sky130_fd_pr__nfet_01v8 w=1 l=0.15

M1670 RBL0_20 RWL_22 x322/RWL0_junc GND sky130_fd_pr__nfet_01v8 w=1 l=0.15

M1671 x542/junc0 x542/junc1 GND GND sky130_fd_pr__nfet_01v8 w=1 l=0.15

M1672 x543/RWL0_junc x543/junc0 GND GND sky130_fd_pr__nfet_01v8 w=1 l=0.15

M1673 WBL_9 WWL_28 x372/junc0 GND sky130_fd_pr__nfet_01v8 w=1 l=0.15

M1674 GND x544/junc0 x544/junc1 GND sky130_fd_pr__nfet_01v8 w=1 l=0.15

M1675 WBL_13 WWL_5 x545/junc0 GND sky130_fd_pr__nfet_01v8 w=1 l=0.15

M1676 x546/RWL1_junc RWL_21 RBL1_30 GND sky130_fd_pr__nfet_01v8 w=1 l=0.15

M1677 x547/RWL0_junc x547/junc0 GND GND sky130_fd_pr__nfet_01v8 w=1 l=0.15

M1678 RBL0_3 RWL_3 x129/RWL0_junc GND sky130_fd_pr__nfet_01v8 w=1 l=0.15

M1679 WBL_4 WWL_13 x396/junc0 GND sky130_fd_pr__nfet_01v8 w=1 l=0.15

M1680 x350/RWL0_junc x350/junc0 GND GND sky130_fd_pr__nfet_01v8 w=1 l=0.15

M1681 x548/junc0 x548/junc1 GND GND sky130_fd_pr__nfet_01v8 w=1 l=0.15

M1682 VDD x549/junc0 x549/junc1 VDD sky130_fd_pr__pfet_01v8 w=1 l=0.15

M1683 x78/junc0 x78/junc1 VDD VDD sky130_fd_pr__pfet_01v8 w=1 l=0.15

M1684 GND x550/junc0 x550/junc1 GND sky130_fd_pr__nfet_01v8 w=1 l=0.15

M1685 GND x551/junc0 x551/junc1 GND sky130_fd_pr__nfet_01v8 w=1 l=0.15

M1686 WBL_12 WWL_17 x482/junc0 GND sky130_fd_pr__nfet_01v8 w=1 l=0.15

M1687 GND x552/junc1 x552/RWL1_junc GND sky130_fd_pr__nfet_01v8 w=1 l=0.15

M1688 x553/RWL1_junc RWL_31 RBL1_16 GND sky130_fd_pr__nfet_01v8 w=1 l=0.15

M1689 GND x213/junc1 x213/RWL1_junc GND sky130_fd_pr__nfet_01v8 w=1 l=0.15

M1690 GND x554/junc1 x554/RWL1_junc GND sky130_fd_pr__nfet_01v8 w=1 l=0.15

M1691 x555/RWL0_junc x555/junc0 GND GND sky130_fd_pr__nfet_01v8 w=1 l=0.15

M1692 VDD x556/junc0 x556/junc1 VDD sky130_fd_pr__pfet_01v8 w=1 l=0.15

M1693 x557/RWL0_junc x557/junc0 GND GND sky130_fd_pr__nfet_01v8 w=1 l=0.15

M1694 GND x558/junc0 x558/junc1 GND sky130_fd_pr__nfet_01v8 w=1 l=0.15

M1695 x559/junc0 x559/junc1 GND GND sky130_fd_pr__nfet_01v8 w=1 l=0.15

M1696 x560/junc0 x560/junc1 GND GND sky130_fd_pr__nfet_01v8 w=1 l=0.15

M1697 x22/junc1 WWL_12 WBLb_8 GND sky130_fd_pr__nfet_01v8 w=1 l=0.15

M1698 x342/junc0 x342/junc1 VDD VDD sky130_fd_pr__pfet_01v8 w=1 l=0.15

M1699 VDD x224/junc0 x224/junc1 VDD sky130_fd_pr__pfet_01v8 w=1 l=0.15

M1700 x101/junc0 x101/junc1 VDD VDD sky130_fd_pr__pfet_01v8 w=1 l=0.15

M1701 x561/junc0 x561/junc1 VDD VDD sky130_fd_pr__pfet_01v8 w=1 l=0.15

M1702 GND x562/junc0 x562/junc1 GND sky130_fd_pr__nfet_01v8 w=1 l=0.15

M1703 x563/junc0 x563/junc1 VDD VDD sky130_fd_pr__pfet_01v8 w=1 l=0.15

M1704 WBL_17 WWL_25 x564/junc0 GND sky130_fd_pr__nfet_01v8 w=1 l=0.15

M1705 x565/junc1 WWL_28 WBLb_16 GND sky130_fd_pr__nfet_01v8 w=1 l=0.15

M1706 GND x566/junc0 x566/junc1 GND sky130_fd_pr__nfet_01v8 w=1 l=0.15

M1707 x567/RWL1_junc RWL_2 RBL1_23 GND sky130_fd_pr__nfet_01v8 w=1 l=0.15

M1708 x33/RWL1_junc RWL_6 RBL1_22 GND sky130_fd_pr__nfet_01v8 w=1 l=0.15

M1709 x568/RWL1_junc RWL_26 RBL1_12 GND sky130_fd_pr__nfet_01v8 w=1 l=0.15

M1710 GND x569/junc0 x569/junc1 GND sky130_fd_pr__nfet_01v8 w=1 l=0.15

M1711 x256/RWL0_junc x256/junc0 GND GND sky130_fd_pr__nfet_01v8 w=1 l=0.15

M1712 WBL_21 WWL_21 x277/junc0 GND sky130_fd_pr__nfet_01v8 w=1 l=0.15

M1713 RBL0_14 RWL_17 x570/RWL0_junc GND sky130_fd_pr__nfet_01v8 w=1 l=0.15

M1714 x571/junc0 x571/junc1 GND GND sky130_fd_pr__nfet_01v8 w=1 l=0.15

M1715 VDD x235/junc0 x235/junc1 VDD sky130_fd_pr__pfet_01v8 w=1 l=0.15

M1716 VDD x239/junc0 x239/junc1 VDD sky130_fd_pr__pfet_01v8 w=1 l=0.15

M1717 RBL0_5 RWL_25 x572/RWL0_junc GND sky130_fd_pr__nfet_01v8 w=1 l=0.15

M1718 x573/junc0 x573/junc1 VDD VDD sky130_fd_pr__pfet_01v8 w=1 l=0.15

M1719 x41/RWL1_junc RWL_24 RBL1_15 GND sky130_fd_pr__nfet_01v8 w=1 l=0.15

M1720 x574/junc1 WWL_18 WBLb_30 GND sky130_fd_pr__nfet_01v8 w=1 l=0.15

M1721 x575/junc1 WWL_14 WBLb_31 GND sky130_fd_pr__nfet_01v8 w=1 l=0.15

M1722 x576/RWL0_junc x576/junc0 GND GND sky130_fd_pr__nfet_01v8 w=1 l=0.15

M1723 x577/junc0 x577/junc1 GND GND sky130_fd_pr__nfet_01v8 w=1 l=0.15

M1724 VDD x249/junc0 x249/junc1 VDD sky130_fd_pr__pfet_01v8 w=1 l=0.15

M1725 RBL0_29 RWL_15 x363/RWL0_junc GND sky130_fd_pr__nfet_01v8 w=1 l=0.15

M1726 RBL0_20 RWL_23 x364/RWL0_junc GND sky130_fd_pr__nfet_01v8 w=1 l=0.15

M1727 RBL0_28 RWL_19 x166/RWL0_junc GND sky130_fd_pr__nfet_01v8 w=1 l=0.15

M1728 RBL0_8 RWL_0 x578/RWL0_junc GND sky130_fd_pr__nfet_01v8 w=1 l=0.15

M1729 WBL_5 WWL_30 x416/junc0 GND sky130_fd_pr__nfet_01v8 w=1 l=0.15

M1730 x310/RWL1_junc RWL_22 RBL1_30 GND sky130_fd_pr__nfet_01v8 w=1 l=0.15

M1731 x579/RWL0_junc x579/junc0 GND GND sky130_fd_pr__nfet_01v8 w=1 l=0.15

M1732 x580/junc0 x580/junc1 GND GND sky130_fd_pr__nfet_01v8 w=1 l=0.15

M1733 x394/junc0 x394/junc1 GND GND sky130_fd_pr__nfet_01v8 w=1 l=0.15

M1734 x581/junc0 x581/junc1 GND GND sky130_fd_pr__nfet_01v8 w=1 l=0.15

M1735 GND x255/junc1 x255/RWL1_junc GND sky130_fd_pr__nfet_01v8 w=1 l=0.15

M1736 x582/junc0 x582/junc1 VDD VDD sky130_fd_pr__pfet_01v8 w=1 l=0.15

M1737 WBL_8 WWL_22 x450/junc0 GND sky130_fd_pr__nfet_01v8 w=1 l=0.15

M1738 GND x583/junc0 x583/junc1 GND sky130_fd_pr__nfet_01v8 w=1 l=0.15

M1739 GND x584/junc0 x584/junc1 GND sky130_fd_pr__nfet_01v8 w=1 l=0.15

M1740 WBL_12 WWL_18 x513/junc0 GND sky130_fd_pr__nfet_01v8 w=1 l=0.15

M1741 RBL0_6 RWL_2 x187/RWL0_junc GND sky130_fd_pr__nfet_01v8 w=1 l=0.15

M1742 GND x585/junc1 x585/RWL1_junc GND sky130_fd_pr__nfet_01v8 w=1 l=0.15

M1743 x586/RWL0_junc x586/junc0 GND GND sky130_fd_pr__nfet_01v8 w=1 l=0.15

M1744 GND x587/junc1 x587/RWL1_junc GND sky130_fd_pr__nfet_01v8 w=1 l=0.15

M1745 x588/RWL0_junc x588/junc0 GND GND sky130_fd_pr__nfet_01v8 w=1 l=0.15

M1746 VDD x589/junc0 x589/junc1 VDD sky130_fd_pr__pfet_01v8 w=1 l=0.15

M1747 x590/junc0 x590/junc1 VDD VDD sky130_fd_pr__pfet_01v8 w=1 l=0.15

M1748 x591/junc0 x591/junc1 VDD VDD sky130_fd_pr__pfet_01v8 w=1 l=0.15

M1749 x43/RWL1_junc RWL_17 RBL1_0 GND sky130_fd_pr__nfet_01v8 w=1 l=0.15

M1750 x74/junc1 WWL_3 WBLb_19 GND sky130_fd_pr__nfet_01v8 w=1 l=0.15

M1751 RBL0_17 RWL_4 x193/RWL0_junc GND sky130_fd_pr__nfet_01v8 w=1 l=0.15

M1752 x239/junc1 WWL_5 WBLb_17 GND sky130_fd_pr__nfet_01v8 w=1 l=0.15

M1753 GND x592/junc0 x592/junc1 GND sky130_fd_pr__nfet_01v8 w=1 l=0.15

M1754 VDD x274/junc0 x274/junc1 VDD sky130_fd_pr__pfet_01v8 w=1 l=0.15

M1755 x593/junc0 x593/junc1 VDD VDD sky130_fd_pr__pfet_01v8 w=1 l=0.15

M1756 x594/junc1 WWL_13 WBLb_8 GND sky130_fd_pr__nfet_01v8 w=1 l=0.15

M1757 GND x595/junc0 x595/junc1 GND sky130_fd_pr__nfet_01v8 w=1 l=0.15

M1758 x596/RWL1_junc RWL_7 RBL1_19 GND sky130_fd_pr__nfet_01v8 w=1 l=0.15

M1759 x24/junc1 WWL_30 WBLb_12 GND sky130_fd_pr__nfet_01v8 w=1 l=0.15

M1760 x597/junc0 x597/junc1 VDD VDD sky130_fd_pr__pfet_01v8 w=1 l=0.15

M1761 x400/junc0 x400/junc1 VDD VDD sky130_fd_pr__pfet_01v8 w=1 l=0.15

M1762 WBL_17 WWL_26 x527/junc0 GND sky130_fd_pr__nfet_01v8 w=1 l=0.15

M1763 WBL_25 WWL_22 x47/junc0 GND sky130_fd_pr__nfet_01v8 w=1 l=0.15

M1764 x335/RWL1_junc x61/RWL1 RBL1_23 GND sky130_fd_pr__nfet_01v8 w=1 l=0.15

M1765 x598/junc1 WWL_10 WBLb_1 GND sky130_fd_pr__nfet_01v8 w=1 l=0.15

M1766 x599/junc1 WWL_21 WBLb_15 GND sky130_fd_pr__nfet_01v8 w=1 l=0.15

M1767 GND x276/junc1 x276/RWL1_junc GND sky130_fd_pr__nfet_01v8 w=1 l=0.15

M1768 x600/junc1 WWL_17 WBLb_16 GND sky130_fd_pr__nfet_01v8 w=1 l=0.15

M1769 GND x601/junc0 x601/junc1 GND sky130_fd_pr__nfet_01v8 w=1 l=0.15

M1770 RBL0_14 RWL_18 x602/RWL0_junc GND sky130_fd_pr__nfet_01v8 w=1 l=0.15

M1771 x603/junc0 x603/junc1 GND GND sky130_fd_pr__nfet_01v8 w=1 l=0.15

M1772 x604/junc0 x604/junc1 GND GND sky130_fd_pr__nfet_01v8 w=1 l=0.15

M1773 RBL0_5 RWL_26 x605/RWL0_junc GND sky130_fd_pr__nfet_01v8 w=1 l=0.15

M1774 x606/junc0 x606/junc1 VDD VDD sky130_fd_pr__pfet_01v8 w=1 l=0.15

M1775 GND x334/junc0 x334/junc1 GND sky130_fd_pr__nfet_01v8 w=1 l=0.15

M1776 VDD x289/junc0 x289/junc1 VDD sky130_fd_pr__pfet_01v8 w=1 l=0.15

M1777 x156/RWL0_junc x156/junc0 GND GND sky130_fd_pr__nfet_01v8 w=1 l=0.15

M1778 x607/junc0 x607/junc1 GND GND sky130_fd_pr__nfet_01v8 w=1 l=0.15

M1779 GND x608/junc1 x608/RWL1_junc GND sky130_fd_pr__nfet_01v8 w=1 l=0.15

M1780 x227/RWL0_junc x227/junc0 GND GND sky130_fd_pr__nfet_01v8 w=1 l=0.15

M1781 x96/RWL1_junc RWL_25 RBL1_15 GND sky130_fd_pr__nfet_01v8 w=1 l=0.15

M1782 x609/RWL0_junc x609/junc0 GND GND sky130_fd_pr__nfet_01v8 w=1 l=0.15

M1783 x610/RWL0_junc x610/junc0 GND GND sky130_fd_pr__nfet_01v8 w=1 l=0.15

M1784 RBL0_29 RWL_16 x407/RWL0_junc GND sky130_fd_pr__nfet_01v8 w=1 l=0.15

M1785 WBL_5 WWL_31 x456/junc0 GND sky130_fd_pr__nfet_01v8 w=1 l=0.15

M1786 RBL0_8 RWL_1 x611/RWL0_junc GND sky130_fd_pr__nfet_01v8 w=1 l=0.15

M1787 x481/RWL1_junc RWL_27 RBL1_26 GND sky130_fd_pr__nfet_01v8 w=1 l=0.15

M1788 x612/junc1 WWL_25 WBLb_21 GND sky130_fd_pr__nfet_01v8 w=1 l=0.15

M1789 x613/RWL1_junc RWL_31 RBL1_12 GND sky130_fd_pr__nfet_01v8 w=1 l=0.15

M1790 x351/RWL1_junc RWL_23 RBL1_30 GND sky130_fd_pr__nfet_01v8 w=1 l=0.15

M1791 x614/junc0 x614/junc1 GND GND sky130_fd_pr__nfet_01v8 w=1 l=0.15

M1792 x211/RWL0_junc x211/junc0 GND GND sky130_fd_pr__nfet_01v8 w=1 l=0.15

M1793 x615/junc0 x615/junc1 GND GND sky130_fd_pr__nfet_01v8 w=1 l=0.15

M1794 x114/junc1 WWL_6 WBLb_4 GND sky130_fd_pr__nfet_01v8 w=1 l=0.15

M1795 WBL_18 WWL_3 x78/junc0 GND sky130_fd_pr__nfet_01v8 w=1 l=0.15

M1796 x616/junc0 x616/junc1 VDD VDD sky130_fd_pr__pfet_01v8 w=1 l=0.15

M1797 WBL_8 WWL_23 x476/junc0 GND sky130_fd_pr__nfet_01v8 w=1 l=0.15

M1798 GND x296/junc1 x296/RWL1_junc GND sky130_fd_pr__nfet_01v8 w=1 l=0.15

M1799 RBL0_2 RWL_7 x224/RWL0_junc GND sky130_fd_pr__nfet_01v8 w=1 l=0.15

M1800 x319/RWL0_junc x319/junc0 GND GND sky130_fd_pr__nfet_01v8 w=1 l=0.15

M1801 RBL0_6 RWL_3 x226/RWL0_junc GND sky130_fd_pr__nfet_01v8 w=1 l=0.15

M1802 x617/RWL0_junc x617/junc0 GND GND sky130_fd_pr__nfet_01v8 w=1 l=0.15

M1803 VDD x618/junc0 x618/junc1 VDD sky130_fd_pr__pfet_01v8 w=1 l=0.15

M1804 GND x619/junc0 x619/junc1 GND sky130_fd_pr__nfet_01v8 w=1 l=0.15

M1805 x620/RWL1_junc RWL_10 RBL1_4 GND sky130_fd_pr__nfet_01v8 w=1 l=0.15

M1806 x621/junc0 x621/junc1 VDD VDD sky130_fd_pr__pfet_01v8 w=1 l=0.15

M1807 x100/RWL1_junc RWL_18 RBL1_0 GND sky130_fd_pr__nfet_01v8 w=1 l=0.15

M1808 x622/junc1 WWL_4 WBLb_19 GND sky130_fd_pr__nfet_01v8 w=1 l=0.15

M1809 VDD x623/junc0 x623/junc1 VDD sky130_fd_pr__pfet_01v8 w=1 l=0.15

M1810 RBL0_17 RWL_5 x239/RWL0_junc GND sky130_fd_pr__nfet_01v8 w=1 l=0.15

M1811 GND x301/junc1 x301/RWL1_junc GND sky130_fd_pr__nfet_01v8 w=1 l=0.15

M1812 x233/RWL1_junc RWL_6 RBL1_8 GND sky130_fd_pr__nfet_01v8 w=1 l=0.15

M1813 GND x624/junc0 x624/junc1 GND sky130_fd_pr__nfet_01v8 w=1 l=0.15

M1814 WBL_2 WWL_29 x467/junc0 GND sky130_fd_pr__nfet_01v8 w=1 l=0.15

M1815 x625/RWL1_junc RWL_0 RBL1_28 GND sky130_fd_pr__nfet_01v8 w=1 l=0.15

M1816 x132/RWL1_junc RWL_4 RBL1_27 GND sky130_fd_pr__nfet_01v8 w=1 l=0.15

M1817 x135/junc1 WWL_22 WBLb_12 GND sky130_fd_pr__nfet_01v8 w=1 l=0.15

M1818 x626/RWL1_junc RWL_8 RBL1_19 GND sky130_fd_pr__nfet_01v8 w=1 l=0.15

M1819 WBL_26 WWL_19 x561/junc0 GND sky130_fd_pr__nfet_01v8 w=1 l=0.15

M1820 x613/junc1 WWL_31 WBLb_12 GND sky130_fd_pr__nfet_01v8 w=1 l=0.15

M1821 WBL_17 WWL_27 x563/junc0 GND sky130_fd_pr__nfet_01v8 w=1 l=0.15

M1822 WBL_25 WWL_23 x101/junc0 GND sky130_fd_pr__nfet_01v8 w=1 l=0.15

M1823 VDD x318/junc0 x318/junc1 VDD sky130_fd_pr__pfet_01v8 w=1 l=0.15

M1824 x11/junc0 x11/junc1 GND GND sky130_fd_pr__nfet_01v8 w=1 l=0.15

M1825 x21/junc1 WWL_11 WBLb_1 GND sky130_fd_pr__nfet_01v8 w=1 l=0.15

M1826 x18/junc1 WWL_18 WBLb_16 GND sky130_fd_pr__nfet_01v8 w=1 l=0.15

M1827 RBL0_14 RWL_19 x627/RWL0_junc GND sky130_fd_pr__nfet_01v8 w=1 l=0.15

M1828 x628/junc0 x628/junc1 GND GND sky130_fd_pr__nfet_01v8 w=1 l=0.15

M1829 WBL_9 WWL_0 x573/junc0 GND sky130_fd_pr__nfet_01v8 w=1 l=0.15

M1830 GND x629/junc0 x629/junc1 GND sky130_fd_pr__nfet_01v8 w=1 l=0.15

M1831 VDD x326/junc0 x326/junc1 VDD sky130_fd_pr__pfet_01v8 w=1 l=0.15

M1832 x200/RWL0_junc x200/junc0 GND GND sky130_fd_pr__nfet_01v8 w=1 l=0.15

M1833 GND x630/junc1 x630/RWL1_junc GND sky130_fd_pr__nfet_01v8 w=1 l=0.15

M1834 x278/RWL0_junc x278/junc0 GND GND sky130_fd_pr__nfet_01v8 w=1 l=0.15

M1835 x146/RWL1_junc RWL_26 RBL1_15 GND sky130_fd_pr__nfet_01v8 w=1 l=0.15

M1836 x631/RWL0_junc x631/junc0 GND GND sky130_fd_pr__nfet_01v8 w=1 l=0.15

M1837 WBL_20 WWL_2 x98/junc0 GND sky130_fd_pr__nfet_01v8 w=1 l=0.15

M1838 x632/junc1 WWL_28 WBLb_29 GND sky130_fd_pr__nfet_01v8 w=1 l=0.15

M1839 x633/junc0 x633/junc1 GND GND sky130_fd_pr__nfet_01v8 w=1 l=0.15

M1840 GND x634/junc1 x634/RWL1_junc GND sky130_fd_pr__nfet_01v8 w=1 l=0.15

M1841 GND x329/junc1 x329/RWL1_junc GND sky130_fd_pr__nfet_01v8 w=1 l=0.15

M1842 x254/junc1 WWL_22 WBLb_29 GND sky130_fd_pr__nfet_01v8 w=1 l=0.15

M1843 x570/RWL0_junc x570/junc0 GND GND sky130_fd_pr__nfet_01v8 w=1 l=0.15

M1844 x635/junc1 WWL_26 WBLb_21 GND sky130_fd_pr__nfet_01v8 w=1 l=0.15

M1845 VDD x333/junc0 x333/junc1 VDD sky130_fd_pr__pfet_01v8 w=1 l=0.15

M1846 RBL0_19 RWL_27 x636/RWL0_junc GND sky130_fd_pr__nfet_01v8 w=1 l=0.15

M1847 GND x330/junc1 x330/RWL1_junc GND sky130_fd_pr__nfet_01v8 w=1 l=0.15

M1848 x567/junc0 x567/junc1 VDD VDD sky130_fd_pr__pfet_01v8 w=1 l=0.15

M1849 x637/junc0 x637/junc1 GND GND sky130_fd_pr__nfet_01v8 w=1 l=0.15

M1850 RBL0_11 RWL_0 x271/RWL0_junc GND sky130_fd_pr__nfet_01v8 w=1 l=0.15

M1851 x638/junc1 WWL_7 WBLb_4 GND sky130_fd_pr__nfet_01v8 w=1 l=0.15

M1852 WBL_8 WWL_24 x639/junc0 GND sky130_fd_pr__nfet_01v8 w=1 l=0.15

M1853 WBL_18 WWL_4 x582/junc0 GND sky130_fd_pr__nfet_01v8 w=1 l=0.15

M1854 RBL0_2 RWL_8 x274/RWL0_junc GND sky130_fd_pr__nfet_01v8 w=1 l=0.15

M1855 x401/junc0 x401/junc1 GND GND sky130_fd_pr__nfet_01v8 w=1 l=0.15

M1856 x363/RWL0_junc x363/junc0 GND GND sky130_fd_pr__nfet_01v8 w=1 l=0.15

M1857 VDD x231/junc0 x231/junc1 VDD sky130_fd_pr__pfet_01v8 w=1 l=0.15

M1858 x640/junc0 x640/junc1 VDD VDD sky130_fd_pr__pfet_01v8 w=1 l=0.15

M1859 x641/junc0 x641/junc1 VDD VDD sky130_fd_pr__pfet_01v8 w=1 l=0.15

M1860 GND x555/junc0 x555/junc1 GND sky130_fd_pr__nfet_01v8 w=1 l=0.15

M1861 x642/junc0 x642/junc1 VDD VDD sky130_fd_pr__pfet_01v8 w=1 l=0.15

M1862 GND x643/junc0 x643/junc1 GND sky130_fd_pr__nfet_01v8 w=1 l=0.15

M1863 GND x36/junc0 x36/junc1 GND sky130_fd_pr__nfet_01v8 w=1 l=0.15

M1864 x644/junc0 x644/junc1 GND GND sky130_fd_pr__nfet_01v8 w=1 l=0.15

M1865 x645/RWL1_junc RWL_11 RBL1_4 GND sky130_fd_pr__nfet_01v8 w=1 l=0.15

M1866 x28/junc0 x28/junc1 VDD VDD sky130_fd_pr__pfet_01v8 w=1 l=0.15

M1867 WBL_11 WWL_22 x590/junc0 GND sky130_fd_pr__nfet_01v8 w=1 l=0.15

M1868 x152/RWL1_junc RWL_19 RBL1_0 GND sky130_fd_pr__nfet_01v8 w=1 l=0.15

M1869 VDD x646/junc0 x646/junc1 VDD sky130_fd_pr__pfet_01v8 w=1 l=0.15

M1870 GND x647/junc1 x647/RWL1_junc GND sky130_fd_pr__nfet_01v8 w=1 l=0.15

M1871 x648/RWL0_junc x648/junc0 GND GND sky130_fd_pr__nfet_01v8 w=1 l=0.15

M1872 x649/junc0 x649/junc1 GND GND sky130_fd_pr__nfet_01v8 w=1 l=0.15

M1873 x650/RWL1_junc RWL_1 RBL1_28 GND sky130_fd_pr__nfet_01v8 w=1 l=0.15

M1874 x186/junc1 WWL_3 WBLb_22 GND sky130_fd_pr__nfet_01v8 w=1 l=0.15

M1875 x181/RWL1_junc RWL_5 RBL1_27 GND sky130_fd_pr__nfet_01v8 w=1 l=0.15

M1876 x185/junc1 WWL_23 WBLb_12 GND sky130_fd_pr__nfet_01v8 w=1 l=0.15

M1877 VDD x359/junc0 x359/junc1 VDD sky130_fd_pr__pfet_01v8 w=1 l=0.15

M1878 WBL_25 WWL_24 x597/junc0 GND sky130_fd_pr__nfet_01v8 w=1 l=0.15

M1879 WBL_26 WWL_20 x400/junc0 GND sky130_fd_pr__nfet_01v8 w=1 l=0.15

M1880 WBL_29 WWL_29 x504/junc0 GND sky130_fd_pr__nfet_01v8 w=1 l=0.15

M1881 WBL_5 WWL_5 x153/junc0 GND sky130_fd_pr__nfet_01v8 w=1 l=0.15

M1882 WBL_9 WWL_1 x606/junc0 GND sky130_fd_pr__nfet_01v8 w=1 l=0.15

M1883 GND x651/junc0 x651/junc1 GND sky130_fd_pr__nfet_01v8 w=1 l=0.15

M1884 GND x652/junc1 x652/RWL1_junc GND sky130_fd_pr__nfet_01v8 w=1 l=0.15

M1885 x653/junc1 WWL_30 WBLb_25 GND sky130_fd_pr__nfet_01v8 w=1 l=0.15

M1886 x654/RWL0_junc x654/junc0 GND GND sky130_fd_pr__nfet_01v8 w=1 l=0.15

M1887 VDD x655/junc0 x655/junc1 VDD sky130_fd_pr__pfet_01v8 w=1 l=0.15

M1888 GND x656/junc1 x656/RWL1_junc GND sky130_fd_pr__nfet_01v8 w=1 l=0.15

M1889 x657/RWL0_junc x657/junc0 GND GND sky130_fd_pr__nfet_01v8 w=1 l=0.15

M1890 x658/RWL0_junc x658/junc0 GND GND sky130_fd_pr__nfet_01v8 w=1 l=0.15

M1891 x602/RWL0_junc x602/junc0 GND GND sky130_fd_pr__nfet_01v8 w=1 l=0.15

M1892 x92/junc1 WWL_27 WBLb_21 GND sky130_fd_pr__nfet_01v8 w=1 l=0.15

M1893 x295/junc1 WWL_23 WBLb_29 GND sky130_fd_pr__nfet_01v8 w=1 l=0.15

M1894 VDD x374/junc0 x374/junc1 VDD sky130_fd_pr__pfet_01v8 w=1 l=0.15

M1895 x659/junc0 x659/junc1 VDD VDD sky130_fd_pr__pfet_01v8 w=1 l=0.15

M1896 GND x373/junc1 x373/RWL1_junc GND sky130_fd_pr__nfet_01v8 w=1 l=0.15

M1897 GND x76/junc0 x76/junc1 GND sky130_fd_pr__nfet_01v8 w=1 l=0.15

M1898 GND x660/junc0 x660/junc1 GND sky130_fd_pr__nfet_01v8 w=1 l=0.15

M1899 x370/junc1 WWL_0 WBLb_13 GND sky130_fd_pr__nfet_01v8 w=1 l=0.15

M1900 RBL0_11 RWL_1 x309/RWL0_junc GND sky130_fd_pr__nfet_01v8 w=1 l=0.15

M1901 x661/junc1 WWL_8 WBLb_4 GND sky130_fd_pr__nfet_01v8 w=1 l=0.15

M1902 x210/RWL1_junc RWL_27 RBL1_29 GND sky130_fd_pr__nfet_01v8 w=1 l=0.15

M1903 x662/junc0 x662/junc1 GND GND sky130_fd_pr__nfet_01v8 w=1 l=0.15

M1904 x94/junc0 x94/junc1 GND GND sky130_fd_pr__nfet_01v8 w=1 l=0.15

M1905 x407/RWL0_junc x407/junc0 GND GND sky130_fd_pr__nfet_01v8 w=1 l=0.15

M1906 VDD x663/junc0 x663/junc1 VDD sky130_fd_pr__pfet_01v8 w=1 l=0.15

M1907 x492/junc0 x492/junc1 VDD VDD sky130_fd_pr__pfet_01v8 w=1 l=0.15

M1908 GND x664/junc0 x664/junc1 GND sky130_fd_pr__nfet_01v8 w=1 l=0.15

M1909 x665/junc0 x665/junc1 VDD VDD sky130_fd_pr__pfet_01v8 w=1 l=0.15

M1910 x328/junc0 x328/junc1 VDD VDD sky130_fd_pr__pfet_01v8 w=1 l=0.15

M1911 x666/junc1 WWL_2 WBLb_24 GND sky130_fd_pr__nfet_01v8 w=1 l=0.15

M1912 GND x667/junc0 x667/junc1 GND sky130_fd_pr__nfet_01v8 w=1 l=0.15

M1913 GND x384/junc1 x384/RWL1_junc GND sky130_fd_pr__nfet_01v8 w=1 l=0.15

M1914 GND x386/junc1 x386/RWL1_junc GND sky130_fd_pr__nfet_01v8 w=1 l=0.15

M1915 x668/RWL1_junc RWL_4 RBL1_13 GND sky130_fd_pr__nfet_01v8 w=1 l=0.15

M1916 x669/junc0 x669/junc1 GND GND sky130_fd_pr__nfet_01v8 w=1 l=0.15

M1917 x449/RWL1_junc RWL_12 RBL1_4 GND sky130_fd_pr__nfet_01v8 w=1 l=0.15

M1918 WBL_11 WWL_23 x621/junc0 GND sky130_fd_pr__nfet_01v8 w=1 l=0.15

M1919 RBL0_10 RWL_13 x490/RWL0_junc GND sky130_fd_pr__nfet_01v8 w=1 l=0.15

M1920 GND x670/junc1 x670/RWL1_junc GND sky130_fd_pr__nfet_01v8 w=1 l=0.15

M1921 GND x671/junc0 x671/junc1 GND sky130_fd_pr__nfet_01v8 w=1 l=0.15

M1922 x672/RWL0_junc x672/junc0 GND GND sky130_fd_pr__nfet_01v8 w=1 l=0.15

M1923 x673/RWL1_junc RWL_24 RBL1_7 GND sky130_fd_pr__nfet_01v8 w=1 l=0.15

M1924 VDD x674/junc0 x674/junc1 VDD sky130_fd_pr__pfet_01v8 w=1 l=0.15

M1925 x390/junc1 WWL_4 WBLb_22 GND sky130_fd_pr__nfet_01v8 w=1 l=0.15

M1926 x497/junc1 WWL_24 WBLb_12 GND sky130_fd_pr__nfet_01v8 w=1 l=0.15

M1927 VDD x405/junc0 x405/junc1 VDD sky130_fd_pr__pfet_01v8 w=1 l=0.15

M1928 x575/RWL1_junc RWL_14 RBL1_31 GND sky130_fd_pr__nfet_01v8 w=1 l=0.15

M1929 x13/junc0 x13/junc1 GND GND sky130_fd_pr__nfet_01v8 w=1 l=0.15

M1930 x15/junc0 x15/junc1 GND GND sky130_fd_pr__nfet_01v8 w=1 l=0.15

M1931 RBL0_23 RWL_17 x333/RWL0_junc GND sky130_fd_pr__nfet_01v8 w=1 l=0.15

M1932 x675/junc0 x675/junc1 GND GND sky130_fd_pr__nfet_01v8 w=1 l=0.15

M1933 VDD x411/junc0 x411/junc1 VDD sky130_fd_pr__pfet_01v8 w=1 l=0.15

M1934 x17/junc0 x17/junc1 GND GND sky130_fd_pr__nfet_01v8 w=1 l=0.15

M1935 x676/junc1 WWL_31 WBLb_25 GND sky130_fd_pr__nfet_01v8 w=1 l=0.15

M1936 GND x410/junc1 x410/RWL1_junc GND sky130_fd_pr__nfet_01v8 w=1 l=0.15

M1937 VDD x677/junc0 x677/junc1 VDD sky130_fd_pr__pfet_01v8 w=1 l=0.15

M1938 x678/RWL0_junc x678/junc0 GND GND sky130_fd_pr__nfet_01v8 w=1 l=0.15

M1939 x565/RWL1_junc RWL_28 RBL1_16 GND sky130_fd_pr__nfet_01v8 w=1 l=0.15

M1940 x463/junc0 x463/junc1 GND GND sky130_fd_pr__nfet_01v8 w=1 l=0.15

M1941 x679/junc0 x679/junc1 VDD VDD sky130_fd_pr__pfet_01v8 w=1 l=0.15

M1942 x627/RWL0_junc x627/junc0 GND GND sky130_fd_pr__nfet_01v8 w=1 l=0.15

M1943 x29/junc0 x29/junc1 GND GND sky130_fd_pr__nfet_01v8 w=1 l=0.15

M1944 x680/RWL0_junc x680/junc0 GND GND sky130_fd_pr__nfet_01v8 w=1 l=0.15

M1945 GND x211/junc0 x211/junc1 GND sky130_fd_pr__nfet_01v8 w=1 l=0.15

M1946 x334/junc1 WWL_24 WBLb_29 GND sky130_fd_pr__nfet_01v8 w=1 l=0.15

M1947 x512/junc0 x512/junc1 VDD VDD sky130_fd_pr__pfet_01v8 w=1 l=0.15

M1948 GND x31/junc0 x31/junc1 GND sky130_fd_pr__nfet_01v8 w=1 l=0.15

M1949 x681/junc0 x681/junc1 VDD VDD sky130_fd_pr__pfet_01v8 w=1 l=0.15

M1950 x682/junc0 x682/junc1 VDD VDD sky130_fd_pr__pfet_01v8 w=1 l=0.15

M1951 x253/junc1 WWL_5 WBLb_9 GND sky130_fd_pr__nfet_01v8 w=1 l=0.15

M1952 GND x417/junc1 x417/RWL1_junc GND sky130_fd_pr__nfet_01v8 w=1 l=0.15

M1953 x683/junc0 x683/junc1 VDD VDD sky130_fd_pr__pfet_01v8 w=1 l=0.15

M1954 WBL_23 WWL_2 x567/junc0 GND sky130_fd_pr__nfet_01v8 w=1 l=0.15

M1955 GND x684/junc0 x684/junc1 GND sky130_fd_pr__nfet_01v8 w=1 l=0.15

M1956 GND x685/junc1 x685/RWL1_junc GND sky130_fd_pr__nfet_01v8 w=1 l=0.15

M1957 GND x686/junc1 x686/RWL1_junc GND sky130_fd_pr__nfet_01v8 w=1 l=0.15

M1958 x414/junc1 WWL_1 WBLb_13 GND sky130_fd_pr__nfet_01v8 w=1 l=0.15

M1959 x687/junc0 x687/junc1 GND GND sky130_fd_pr__nfet_01v8 w=1 l=0.15

M1960 x688/junc0 x688/junc1 GND GND sky130_fd_pr__nfet_01v8 w=1 l=0.15

M1961 x521/junc0 x521/junc1 VDD VDD sky130_fd_pr__pfet_01v8 w=1 l=0.15

M1962 GND x44/junc0 x44/junc1 GND sky130_fd_pr__nfet_01v8 w=1 l=0.15

M1963 RBL0_12 RWL_28 x689/RWL0_junc GND sky130_fd_pr__nfet_01v8 w=1 l=0.15

M1964 WBL_31 WWL_6 x640/junc0 GND sky130_fd_pr__nfet_01v8 w=1 l=0.15

M1965 WBL_30 WWL_10 x641/junc0 GND sky130_fd_pr__nfet_01v8 w=1 l=0.15

M1966 RBL0_15 RWL_10 x517/RWL0_junc GND sky130_fd_pr__nfet_01v8 w=1 l=0.15

M1967 x46/junc0 x46/junc1 GND GND sky130_fd_pr__nfet_01v8 w=1 l=0.15

M1968 WBL_22 WWL_14 x642/junc0 GND sky130_fd_pr__nfet_01v8 w=1 l=0.15

M1969 GND x426/junc1 x426/RWL1_junc GND sky130_fd_pr__nfet_01v8 w=1 l=0.15

M1970 VDD x250/junc0 x250/junc1 VDD sky130_fd_pr__pfet_01v8 w=1 l=0.15

M1971 x545/RWL1_junc RWL_5 RBL1_13 GND sky130_fd_pr__nfet_01v8 w=1 l=0.15

M1972 x690/junc0 x690/junc1 GND GND sky130_fd_pr__nfet_01v8 w=1 l=0.15

M1973 x636/RWL0_junc x636/junc0 GND GND sky130_fd_pr__nfet_01v8 w=1 l=0.15

M1974 GND x689/junc1 x689/RWL1_junc GND sky130_fd_pr__nfet_01v8 w=1 l=0.15

M1975 x115/junc1 WWL_29 WBLb_22 GND sky130_fd_pr__nfet_01v8 w=1 l=0.15

M1976 WBL_11 WWL_24 x28/junc0 GND sky130_fd_pr__nfet_01v8 w=1 l=0.15

M1977 x322/junc0 x322/junc1 VDD VDD sky130_fd_pr__pfet_01v8 w=1 l=0.15

M1978 x691/RWL0_junc x691/junc0 GND GND sky130_fd_pr__nfet_01v8 w=1 l=0.15

M1979 x600/RWL1_junc RWL_17 RBL1_16 GND sky130_fd_pr__nfet_01v8 w=1 l=0.15

M1980 x598/RWL1_junc RWL_10 RBL1_1 GND sky130_fd_pr__nfet_01v8 w=1 l=0.15

M1981 GND x53/junc0 x53/junc1 GND sky130_fd_pr__nfet_01v8 w=1 l=0.15

M1982 GND x56/junc0 x56/junc1 GND sky130_fd_pr__nfet_01v8 w=1 l=0.15

M1983 x692/RWL1_junc RWL_25 RBL1_7 GND sky130_fd_pr__nfet_01v8 w=1 l=0.15

M1984 VDD x440/junc0 x440/junc1 VDD sky130_fd_pr__pfet_01v8 w=1 l=0.15

M1985 x453/RWL0_junc x453/junc0 GND GND sky130_fd_pr__nfet_01v8 w=1 l=0.15

M1986 x693/junc1 WWL_9 WBLb_18 GND sky130_fd_pr__nfet_01v8 w=1 l=0.15

M1987 VDD x439/junc0 x439/junc1 VDD sky130_fd_pr__pfet_01v8 w=1 l=0.15

M1988 x694/junc0 x694/junc1 GND GND sky130_fd_pr__nfet_01v8 w=1 l=0.15

M1989 x67/junc0 x67/junc1 GND GND sky130_fd_pr__nfet_01v8 w=1 l=0.15

M1990 x695/RWL1_junc RWL_15 RBL1_31 GND sky130_fd_pr__nfet_01v8 w=1 l=0.15

M1991 x696/junc1 WWL_17 WBLb_25 GND sky130_fd_pr__nfet_01v8 w=1 l=0.15

M1992 x70/junc0 x70/junc1 GND GND sky130_fd_pr__nfet_01v8 w=1 l=0.15

M1993 x697/junc0 x697/junc1 GND GND sky130_fd_pr__nfet_01v8 w=1 l=0.15

M1994 VDD x698/junc0 x698/junc1 VDD sky130_fd_pr__pfet_01v8 w=1 l=0.15

M1995 RBL0_23 RWL_18 x374/RWL0_junc GND sky130_fd_pr__nfet_01v8 w=1 l=0.15

M1996 RBL0_24 RWL_14 x699/RWL0_junc GND sky130_fd_pr__nfet_01v8 w=1 l=0.15

M1997 GND x448/junc1 x448/RWL1_junc GND sky130_fd_pr__nfet_01v8 w=1 l=0.15

M1998 x700/RWL1_junc RWL_21 RBL1_25 GND sky130_fd_pr__nfet_01v8 w=1 l=0.15

M1999 x701/RWL0_junc x701/junc0 GND GND sky130_fd_pr__nfet_01v8 w=1 l=0.15

M2000 VDD x4/junc0 x4/junc1 VDD sky130_fd_pr__pfet_01v8 w=1 l=0.15

M2001 x24/RWL1_junc RWL_30 RBL1_12 GND sky130_fd_pr__nfet_01v8 w=1 l=0.15

M2002 VDD x12/junc0 x12/junc1 VDD sky130_fd_pr__pfet_01v8 w=1 l=0.15

M2003 x25/RWL1_junc RWL_29 RBL1_16 GND sky130_fd_pr__nfet_01v8 w=1 l=0.15

M2004 x85/junc0 x85/junc1 GND GND sky130_fd_pr__nfet_01v8 w=1 l=0.15

M2005 x702/junc0 x702/junc1 VDD VDD sky130_fd_pr__pfet_01v8 w=1 l=0.15

M2006 x703/RWL0_junc x703/junc0 GND GND sky130_fd_pr__nfet_01v8 w=1 l=0.15

M2007 GND x87/junc0 x87/junc1 GND sky130_fd_pr__nfet_01v8 w=1 l=0.15

M2008 x704/RWL1_junc RWL_30 RBL1_18 GND sky130_fd_pr__nfet_01v8 w=1 l=0.15

M2009 x86/junc0 x86/junc1 GND GND sky130_fd_pr__nfet_01v8 w=1 l=0.15

M2010 x551/junc0 x551/junc1 VDD VDD sky130_fd_pr__pfet_01v8 w=1 l=0.15

M2011 GND x88/junc0 x88/junc1 GND sky130_fd_pr__nfet_01v8 w=1 l=0.15

M2012 x550/junc0 x550/junc1 VDD VDD sky130_fd_pr__pfet_01v8 w=1 l=0.15

M2013 WBL_7 WWL_17 x659/junc0 GND sky130_fd_pr__nfet_01v8 w=1 l=0.15

M2014 GND x705/junc1 x705/RWL1_junc GND sky130_fd_pr__nfet_01v8 w=1 l=0.15

M2015 GND x706/junc1 x706/RWL1_junc GND sky130_fd_pr__nfet_01v8 w=1 l=0.15

M2016 VDD x707/junc0 x707/junc1 VDD sky130_fd_pr__pfet_01v8 w=1 l=0.15

M2017 x708/junc0 x708/junc1 GND GND sky130_fd_pr__nfet_01v8 w=1 l=0.15

M2018 RBL0_8 RWL_30 x709/RWL0_junc GND sky130_fd_pr__nfet_01v8 w=1 l=0.15

M2019 GND x387/junc0 x387/junc1 GND sky130_fd_pr__nfet_01v8 w=1 l=0.15

M2020 RBL0_12 RWL_29 x446/RWL0_junc GND sky130_fd_pr__nfet_01v8 w=1 l=0.15

M2021 WBL_31 WWL_7 x492/junc0 GND sky130_fd_pr__nfet_01v8 w=1 l=0.15

M2022 WBL_30 WWL_11 x665/junc0 GND sky130_fd_pr__nfet_01v8 w=1 l=0.15

M2023 RBL0_15 RWL_11 x552/RWL0_junc GND sky130_fd_pr__nfet_01v8 w=1 l=0.15

M2024 RBL0_0 RWL_4 x710/RWL0_junc GND sky130_fd_pr__nfet_01v8 w=1 l=0.15

M2025 x103/junc0 x103/junc1 GND GND sky130_fd_pr__nfet_01v8 w=1 l=0.15

M2026 x300/junc1 WWL_12 WBLb_3 GND sky130_fd_pr__nfet_01v8 w=1 l=0.15

M2027 WBL_11 WWL_30 x174/junc0 GND sky130_fd_pr__nfet_01v8 w=1 l=0.15

M2028 x711/RWL0_junc x711/junc0 GND GND sky130_fd_pr__nfet_01v8 w=1 l=0.15

M2029 x105/junc0 x105/junc1 GND GND sky130_fd_pr__nfet_01v8 w=1 l=0.15

M2030 GND x446/junc1 x446/RWL1_junc GND sky130_fd_pr__nfet_01v8 w=1 l=0.15

M2031 x712/junc0 x712/junc1 VDD VDD sky130_fd_pr__pfet_01v8 w=1 l=0.15

M2032 x364/junc0 x364/junc1 VDD VDD sky130_fd_pr__pfet_01v8 w=1 l=0.15

M2033 x21/RWL1_junc RWL_11 RBL1_1 GND sky130_fd_pr__nfet_01v8 w=1 l=0.15

M2034 GND x713/junc0 x713/junc1 GND sky130_fd_pr__nfet_01v8 w=1 l=0.15

M2035 x18/RWL1_junc RWL_18 RBL1_16 GND sky130_fd_pr__nfet_01v8 w=1 l=0.15

M2036 GND x111/junc0 x111/junc1 GND sky130_fd_pr__nfet_01v8 w=1 l=0.15

M2037 x714/junc1 WWL_2 WBLb_27 GND sky130_fd_pr__nfet_01v8 w=1 l=0.15

M2038 x20/RWL1_junc RWL_2 RBL1_18 GND sky130_fd_pr__nfet_01v8 w=1 l=0.15

M2039 x715/RWL1_junc RWL_26 RBL1_7 GND sky130_fd_pr__nfet_01v8 w=1 l=0.15

M2040 RBL0_9 RWL_17 x716/RWL0_junc GND sky130_fd_pr__nfet_01v8 w=1 l=0.15

M2041 x480/RWL0_junc x480/junc0 GND GND sky130_fd_pr__nfet_01v8 w=1 l=0.15

M2042 x113/junc0 x113/junc1 GND GND sky130_fd_pr__nfet_01v8 w=1 l=0.15

M2043 VDD x470/junc0 x470/junc1 VDD sky130_fd_pr__pfet_01v8 w=1 l=0.15

M2044 x717/junc0 x717/junc1 VDD VDD sky130_fd_pr__pfet_01v8 w=1 l=0.15

M2045 GND x117/junc0 x117/junc1 GND sky130_fd_pr__nfet_01v8 w=1 l=0.15

M2046 x34/RWL1_junc RWL_24 RBL1_10 GND sky130_fd_pr__nfet_01v8 w=1 l=0.15

M2047 x37/RWL1_junc RWL_16 RBL1_31 GND sky130_fd_pr__nfet_01v8 w=1 l=0.15

M2048 x124/junc0 x124/junc1 GND GND sky130_fd_pr__nfet_01v8 w=1 l=0.15

M2049 VDD x48/junc0 x48/junc1 VDD sky130_fd_pr__pfet_01v8 w=1 l=0.15

M2050 x718/junc1 WWL_18 WBLb_25 GND sky130_fd_pr__nfet_01v8 w=1 l=0.15

M2051 x219/junc1 WWL_14 WBLb_26 GND sky130_fd_pr__nfet_01v8 w=1 l=0.15

M2052 x719/junc0 x719/junc1 GND GND sky130_fd_pr__nfet_01v8 w=1 l=0.15

M2053 VDD x474/junc0 x474/junc1 VDD sky130_fd_pr__pfet_01v8 w=1 l=0.15

M2054 RBL0_23 RWL_19 x418/RWL0_junc GND sky130_fd_pr__nfet_01v8 w=1 l=0.15

M2055 RBL0_24 RWL_15 x720/RWL0_junc GND sky130_fd_pr__nfet_01v8 w=1 l=0.15

M2056 RBL0_3 RWL_0 x422/RWL0_junc GND sky130_fd_pr__nfet_01v8 w=1 l=0.15

M2057 x47/RWL1_junc RWL_22 RBL1_25 GND sky130_fd_pr__nfet_01v8 w=1 l=0.15

M2058 x721/RWL0_junc x721/junc0 GND GND sky130_fd_pr__nfet_01v8 w=1 l=0.15

M2059 WBL_15 WWL_28 x203/junc0 GND sky130_fd_pr__nfet_01v8 w=1 l=0.15

M2060 x383/junc0 x383/junc1 VDD VDD sky130_fd_pr__pfet_01v8 w=1 l=0.15

M2061 VDD x54/junc0 x54/junc1 VDD sky130_fd_pr__pfet_01v8 w=1 l=0.15

M2062 GND x382/junc1 x382/RWL1_junc GND sky130_fd_pr__nfet_01v8 w=1 l=0.15

M2063 x722/junc0 x722/junc1 GND GND sky130_fd_pr__nfet_01v8 w=1 l=0.15

M2064 x723/junc0 x723/junc1 VDD VDD sky130_fd_pr__pfet_01v8 w=1 l=0.15

M2065 GND x479/junc1 x479/RWL1_junc GND sky130_fd_pr__nfet_01v8 w=1 l=0.15

M2066 GND x139/junc0 x139/junc1 GND sky130_fd_pr__nfet_01v8 w=1 l=0.15

M2067 WBL_21 WWL_28 x0/junc0 GND sky130_fd_pr__nfet_01v8 w=1 l=0.15

M2068 WBL_3 WWL_22 x679/junc0 GND sky130_fd_pr__nfet_01v8 w=1 l=0.15

M2069 x724/junc0 x724/junc1 GND GND sky130_fd_pr__nfet_01v8 w=1 l=0.15

M2070 GND x725/junc0 x725/junc1 GND sky130_fd_pr__nfet_01v8 w=1 l=0.15

M2071 WBL_1 WWL_3 x681/junc0 GND sky130_fd_pr__nfet_01v8 w=1 l=0.15

M2072 x584/junc0 x584/junc1 VDD VDD sky130_fd_pr__pfet_01v8 w=1 l=0.15

M2073 WBL_16 WWL_10 x512/junc0 GND sky130_fd_pr__nfet_01v8 w=1 l=0.15

M2074 WBL_7 WWL_18 x682/junc0 GND sky130_fd_pr__nfet_01v8 w=1 l=0.15

M2075 x317/RWL0_junc x317/junc0 GND GND sky130_fd_pr__nfet_01v8 w=1 l=0.15

M2076 GND x726/junc1 x726/RWL1_junc GND sky130_fd_pr__nfet_01v8 w=1 l=0.15

[...]
* x527	10T_1x8_magic_74/10T_toy_magic_6
* x528	10T_1x8_magic_81/10T_toy_magic_3
* x529	10T_1x8_magic_19/10T_toy_magic_7
* x530	10T_1x8_magic_99/10T_toy_magic_6
* x531	10T_1x8_magic_40/10T_toy_magic_3
* x532	10T_1x8_magic_91/10T_toy_magic_6
* x533	10T_1x8_magic_108/10T_toy_magic_1
* x534	10T_1x8_magic_24/10T_toy_magic_2
* x535	10T_1x8_magic_10/10T_toy_magic_7
* x536	10T_1x8_magic_54/10T_toy_magic_2
* x537	10T_1x8_magic_66/10T_toy_magic_0
* x538	10T_1x8_magic_92/10T_toy_magic_0
* x539	10T_1x8_magic_13/10T_toy_magic_5
* x540	10T_1x8_magic_106/10T_toy_magic_7
* x541	10T_1x8_magic_36/10T_toy_magic_6
* x542	10T_1x8_magic_67/10T_toy_magic_3
* x543	10T_1x8_magic_5/10T_toy_magic_0
* x544	10T_1x8_magic_68/10T_toy_magic_6
* x545	10T_1x8_magic_58/10T_toy_magic_2
* x546	10T_1x8_magic_85/10T_toy_magic_0
* x547	10T_1x8_magic_127/10T_toy_magic_5
* x548	10T_1x8_magic_90/10T_toy_magic_5
* x549	10T_1x8_magic_78/10T_toy_magic_7
* x550	10T_1x8_magic_6/10T_toy_magic_6
* x551	10T_1x8_magic_104/10T_toy_magic_7
* x552	10T_1x8_magic_52/10T_toy_magic_1
* x553	10T_1x8_magic_64/10T_toy_magic_7
* x554	10T_1x8_magic_9/10T_toy_magic_1
* x555	10T_1x8_magic_67/10T_toy_magic_0
* x556	10T_1x8_magic_83/10T_toy_magic_4
* x557	10T_1x8_magic_36/10T_toy_magic_2
* x558	10T_1x8_magic_25/10T_toy_magic_5
* x559	10T_1x8_magic_3/10T_toy_magic_7
* x560	10T_1x8_magic_55/10T_toy_magic_1
* x561	10T_1x8_magic_89/10T_toy_magic_5
* x562	10T_1x8_magic_65/10T_toy_magic_3
* x563	10T_1x8_magic_72/10T_toy_magic_6
* x564	10T_1x8_magic_76/10T_toy_magic_6
* x565	10T_1x8_magic_70/10T_toy_magic_7
* x566	10T_1x8_magic_97/10T_toy_magic_6
* x567	10T_1x8_magic_122/10T_toy_magic_1
* x568	10T_1x8_magic_36/10T_toy_magic_3
* x569	10T_1x8_magic_88/10T_toy_magic_6
* x570	10T_1x8_magic_45/10T_toy_magic_0
* x571	10T_1x8_magic_49/10T_toy_magic_6
* x572	10T_1x8_magic_21/10T_toy_magic_2
* x573	10T_1x8_magic_63/10T_toy_magic_6
* x574	10T_1x8_magic_93/10T_toy_magic_0
* x575	10T_1x8_magic_99/10T_toy_magic_1
* x576	10T_1x8_magic_12/10T_toy_magic_5
* x577	10T_1x8_magic_103/10T_toy_magic_7
* x578	10T_1x8_magic_63/10T_toy_magic_7
* x579	10T_1x8_magic_125/10T_toy_magic_5
* x580	10T_1x8_magic_107/10T_toy_magic_4
* x581	10T_1x8_magic_91/10T_toy_magic_5
* x582	10T_1x8_magic_116/10T_toy_magic_5
* x583	10T_1x8_magic_102/10T_toy_magic_7
* x584	10T_1x8_magic_7/10T_toy_magic_6
* x585	10T_1x8_magic_51/10T_toy_magic_1
* x586	10T_1x8_magic_37/10T_toy_magic_5
* x587	10T_1x8_magic_31/10T_toy_magic_1
* x588	10T_1x8_magic_112/10T_toy_magic_3
* x589	10T_1x8_magic_81/10T_toy_magic_4
* x590	10T_1x8_magic_41/10T_toy_magic_4
* x591	10T_1x8_magic_21/10T_toy_magic_7
* x592	10T_1x8_magic_26/10T_toy_magic_5
* x593	10T_1x8_magic_71/10T_toy_magic_1
* x594	10T_1x8_magic_50/10T_toy_magic_7
* x595	10T_1x8_magic_86/10T_toy_magic_2
* x596	10T_1x8_magic_112/10T_toy_magic_4
* x597	10T_1x8_magic_78/10T_toy_magic_6
* x598	10T_1x8_magic_13/10T_toy_magic_6
* x599	10T_1x8_magic_42/10T_toy_magic_1
* x600	10T_1x8_magic_90/10T_toy_magic_7
* x601	10T_1x8_magic_95/10T_toy_magic_6
* x602	10T_1x8_magic_46/10T_toy_magic_0
* x603	10T_1x8_magic_48/10T_toy_magic_6
* x604	10T_1x8_magic_67/10T_toy_magic_7
* x605	10T_1x8_magic_22/10T_toy_magic_2
* x606	10T_1x8_magic_62/10T_toy_magic_6
* x607	10T_1x8_magic_16/10T_toy_magic_6
* x608	10T_1x8_magic_78/10T_toy_magic_3
* x609	10T_1x8_magic_59/10T_toy_magic_4
* x610	10T_1x8_magic_11/10T_toy_magic_5
* x611	10T_1x8_magic_62/10T_toy_magic_7
* x612	10T_1x8_magic_76/10T_toy_magic_2
* x613	10T_1x8_magic_33/10T_toy_magic_3
* x614	10T_1x8_magic_106/10T_toy_magic_4
* x615	10T_1x8_magic_88/10T_toy_magic_5
* x616	10T_1x8_magic_117/10T_toy_magic_5
* x617	10T_1x8_magic_110/10T_toy_magic_3
* x618	10T_1x8_magic_78/10T_toy_magic_4
* x619	10T_1x8_magic_108/10T_toy_magic_2
* x620	10T_1x8_magic_13/10T_toy_magic_3
* x621	10T_1x8_magic_39/10T_toy_magic_4
* x622	10T_1x8_magic_116/10T_toy_magic_4
* x623	10T_1x8_magic_15/10T_toy_magic_0
* x624	10T_1x8_magic_23/10T_toy_magic_5
* x625	10T_1x8_magic_127/10T_toy_magic_3
* x626	10T_1x8_magic_110/10T_toy_magic_4
* x627	10T_1x8_magic_44/10T_toy_magic_0
* x628	10T_1x8_magic_47/10T_toy_magic_6
* x629	10T_1x8_magic_79/10T_toy_magic_2
* x630	10T_1x8_magic_79/10T_toy_magic_3
* x631	10T_1x8_magic_58/10T_toy_magic_4
* x632	10T_1x8_magic_71/10T_toy_magic_2
* x633	10T_1x8_magic_16/10T_toy_magic_5
* x634	10T_1x8_magic_61/10T_toy_magic_3
* x635	10T_1x8_magic_74/10T_toy_magic_2
* x636	10T_1x8_magic_72/10T_toy_magic_4
* x637	10T_1x8_magic_103/10T_toy_magic_4
* x638	10T_1x8_magic_4/10T_toy_magic_3
* x639	10T_1x8_magic_38/10T_toy_magic_7
* x640	10T_1x8_magic_115/10T_toy_magic_1
* x641	10T_1x8_magic_107/10T_toy_magic_0
* x642	10T_1x8_magic_98/10T_toy_magic_0
* x643	10T_1x8_magic_123/10T_toy_magic_0
* x644	10T_1x8_magic_15/10T_toy_magic_2
* x645	10T_1x8_magic_12/10T_toy_magic_3
* x646	10T_1x8_magic_61/10T_toy_magic_1
* x647	10T_1x8_magic_123/10T_toy_magic_2
* x648	10T_1x8_magic_84/10T_toy_magic_1
* x649	10T_1x8_magic_18/10T_toy_magic_7
* x650	10T_1x8_magic_125/10T_toy_magic_3
* x651	10T_1x8_magic_75/10T_toy_magic_2
* x652	10T_1x8_magic_75/10T_toy_magic_3
* x653	10T_1x8_magic_66/10T_toy_magic_6
* x654	10T_1x8_magic_64/10T_toy_magic_0
* x655	10T_1x8_magic_82/10T_toy_magic_4
* x656	10T_1x8_magic_60/10T_toy_magic_3
* x657	10T_1x8_magic_49/10T_toy_magic_1
* x658	10T_1x8_magic_4/10T_toy_magic_7
* x659	10T_1x8_magic_29/10T_toy_magic_1
* x660	10T_1x8_magic_10/10T_toy_magic_0
* x661	10T_1x8_magic_14/10T_toy_magic_3
* x662	10T_1x8_magic_79/10T_toy_magic_0
* x663	10T_1x8_magic_64/10T_toy_magic_6
* x664	10T_1x8_magic_113/10T_toy_magic_5
* x665	10T_1x8_magic_106/10T_toy_magic_0
* x666	10T_1x8_magic_123/10T_toy_magic_7
* x667	10T_1x8_magic_121/10T_toy_magic_0
* x668	10T_1x8_magic_59/10T_toy_magic_2
* x669	10T_1x8_magic_61/10T_toy_magic_0
* x670	10T_1x8_magic_121/10T_toy_magic_2
* x671	10T_1x8_magic_33/10T_toy_magic_7
* x672	10T_1x8_magic_82/10T_toy_magic_1
* x673	10T_1x8_magic_24/10T_toy_magic_1
* x674	10T_1x8_magic_44/10T_toy_magic_5
* x675	10T_1x8_magic_114/10T_toy_magic_1
* x676	10T_1x8_magic_67/10T_toy_magic_6
* x677	10T_1x8_magic_80/10T_toy_magic_4
* x678	10T_1x8_magic_14/10T_toy_magic_7
* x679	10T_1x8_magic_26/10T_toy_magic_4
* x680	10T_1x8_magic_48/10T_toy_magic_1
* x681	10T_1x8_magic_1/10T_toy_magic_6
* x682	10T_1x8_magic_30/10T_toy_magic_1
* x683	10T_1x8_magic_17/10T_toy_magic_3
* x684	10T_1x8_magic_57/10T_toy_magic_1
* x685	10T_1x8_magic_53/10T_toy_magic_5
* x686	10T_1x8_magic_8/10T_toy_magic_5
* x687	10T_1x8_magic_83/10T_toy_magic_1
* x688	10T_1x8_magic_75/10T_toy_magic_0
* x689	10T_1x8_magic_34/10T_toy_magic_3
* x690	10T_1x8_magic_60/10T_toy_magic_0
* x691	10T_1x8_magic_80/10T_toy_magic_1
* x692	10T_1x8_magic_21/10T_toy_magic_1
* x693	10T_1x8_magic_108/10T_toy_magic_5
* x694	10T_1x8_magic_54/10T_toy_magic_7
* x695	10T_1x8_magic_97/10T_toy_magic_1
* x696	10T_1x8_magic_92/10T_toy_magic_6
* x697	10T_1x8_magic_35/10T_toy_magic_2
* x698	10T_1x8_magic_22/10T_toy_magic_3
* x699	10T_1x8_magic_99/10T_toy_magic_7
* x700	10T_1x8_magic_85/10T_toy_magic_6
* x701	10T_1x8_magic_126/10T_toy_magic_2
* x702	10T_1x8_magic_23/10T_toy_magic_4
* x703	10T_1x8_magic_47/10T_toy_magic_1
* x704	10T_1x8_magic_65/10T_toy_magic_5
* x705	10T_1x8_magic_52/10T_toy_magic_5
* x706	10T_1x8_magic_9/10T_toy_magic_5
* x707	10T_1x8_magic_82/10T_toy_magic_0
* x708	10T_1x8_magic_81/10T_toy_magic_1
* x709	10T_1x8_magic_32/10T_toy_magic_7
* x710	10T_1x8_magic_6/10T_toy_magic_7
* x711	10T_1x8_magic_87/10T_toy_magic_3
* x712	10T_1x8_magic_88/10T_toy_magic_2
* x713	10T_1x8_magic_17/10T_toy_magic_4
* x714	10T_1x8_magic_123/10T_toy_magic_4
* x715	10T_1x8_magic_22/10T_toy_magic_1
* x716	10T_1x8_magic_45/10T_toy_magic_6
* x717	10T_1x8_magic_2/10T_toy_magic_3
* x718	10T_1x8_magic_93/10T_toy_magic_6
* x719	10T_1x8_magic_102/10T_toy_magic_4
* x720	10T_1x8_magic_97/10T_toy_magic_7
* x721	10T_1x8_magic_124/10T_toy_magic_2
* x722	10T_1x8_magic_74/10T_toy_magic_7
* x723	10T_1x8_magic_24/10T_toy_magic_4
* x724	10T_1x8_magic_27/10T_toy_magic_6
* x725	10T_1x8_magic_51/10T_toy_magic_4
* x726	10T_1x8_magic_51/10T_toy_magic_5
* x727	10T_1x8_magic_19/10T_toy_magic_2
* x728	10T_1x8_magic_31/10T_toy_magic_5
* x729	10T_1x8_magic_80/10T_toy_magic_0
* x730	10T_1x8_magic_26/10T_toy_magic_0
* x731	10T_1x8_magic_7/10T_toy_magic_7
* x732	10T_1x8_magic_10/10T_toy_magic_4
* x733	10T_1x8_magic_68/10T_toy_magic_4
* x734	10T_1x8_magic_77/10T_toy_magic_3
* x735	10T_1x8_magic_122/10T_toy_magic_6
* x736	10T_1x8_magic_94/10T_toy_magic_3
* x737	10T_1x8_magic_46/10T_toy_magic_6
* x738	10T_1x8_magic_3/10T_toy_magic_3
* x739	10T_1x8_magic_69/10T_toy_magic_0
* x740	10T_1x8_magic_77/10T_toy_magic_1
* x741	10T_1x8_magic_71/10T_toy_magic_6
* x742	10T_1x8_magic_6/10T_toy_magic_0
* x743	10T_1x8_magic_95/10T_toy_magic_7
* x744	10T_1x8_magic_65/10T_toy_magic_7
* x745	10T_1x8_magic_77/10T_toy_magic_0
* x746	10T_1x8_magic_23/10T_toy_magic_0
* x747	10T_1x8_magic_42/10T_toy_magic_0
* x748	10T_1x8_magic_31/10T_toy_magic_3
* x749	10T_1x8_magic_103/10T_toy_magic_1
* x750	10T_1x8_magic_76/10T_toy_magic_1
* x751	10T_1x8_magic_7/10T_toy_magic_0
* x752	10T_1x8_magic_34/10T_toy_magic_7
* x753	10T_1x8_magic_0/10T_toy_magic_1
* x754	10T_1x8_magic_71/10T_toy_magic_5
* x755	10T_1x8_magic_32/10T_toy_magic_2
* x756	10T_1x8_magic_115/10T_toy_magic_5
* x757	10T_1x8_magic_107/10T_toy_magic_6
* x758	10T_1x8_magic_98/10T_toy_magic_6
* x759	10T_1x8_magic_123/10T_toy_magic_6
* x760	10T_1x8_magic_50/10T_toy_magic_3
* x761	10T_1x8_magic_41/10T_toy_magic_0
* x762	10T_1x8_magic_84/10T_toy_magic_5
* x763	10T_1x8_magic_96/10T_toy_magic_7
* x764	10T_1x8_magic_35/10T_toy_magic_7
* x765	10T_1x8_magic_75/10T_toy_magic_7
* x766	10T_1x8_magic_70/10T_toy_magic_1
* x767	10T_1x8_magic_101/10T_toy_magic_1
* x768	10T_1x8_magic_18/10T_toy_magic_4
* x769	10T_1x8_magic_74/10T_toy_magic_1
* x770	10T_1x8_magic_65/10T_toy_magic_0
* x771	10T_1x8_magic_1/10T_toy_magic_1
* x772	10T_1x8_magic_49/10T_toy_magic_5
* x773	10T_1x8_magic_69/10T_toy_magic_5
* x774	10T_1x8_magic_19/10T_toy_magic_6
* x775	10T_1x8_magic_29/10T_toy_magic_5
* x776	10T_1x8_magic_33/10T_toy_magic_2
* x777	10T_1x8_magic_106/10T_toy_magic_6
* x778	10T_1x8_magic_24/10T_toy_magic_7
* x779	10T_1x8_magic_96/10T_toy_magic_6
* x780	10T_1x8_magic_121/10T_toy_magic_6
* x781	10T_1x8_magic_31/10T_toy_magic_7
* x782	10T_1x8_magic_61/10T_toy_magic_6
* x783	10T_1x8_magic_39/10T_toy_magic_0
* x784	10T_1x8_magic_24/10T_toy_magic_5
* x785	10T_1x8_magic_27/10T_toy_magic_2
* x786	10T_1x8_magic_15/10T_toy_magic_6
* x787	10T_1x8_magic_94/10T_toy_magic_7
* x788	10T_1x8_magic_84/10T_toy_magic_6
* x789	10T_1x8_magic_109/10T_toy_magic_2
* x790	10T_1x8_magic_65/10T_toy_magic_4
* x791	10T_1x8_magic_114/10T_toy_magic_5
* x792	10T_1x8_magic_25/10T_toy_magic_4
* x793	10T_1x8_magic_53/10T_toy_magic_7
* x794	10T_1x8_magic_63/10T_toy_magic_3
* x795	10T_1x8_magic_48/10T_toy_magic_5
* x796	10T_1x8_magic_30/10T_toy_magic_5
* x797	10T_1x8_magic_102/10T_toy_magic_0
* x798	10T_1x8_magic_75/10T_toy_magic_6
* x799	10T_1x8_magic_127/10T_toy_magic_2
* x800	10T_1x8_magic_60/10T_toy_magic_6
* x801	10T_1x8_magic_17/10T_toy_magic_7
* x802	10T_1x8_magic_21/10T_toy_magic_5
* x803	10T_1x8_magic_82/10T_toy_magic_6
* x804	10T_1x8_magic_90/10T_toy_magic_3
* x805	10T_1x8_magic_98/10T_toy_magic_4
* x806	10T_1x8_magic_52/10T_toy_magic_7
* x807	10T_1x8_magic_62/10T_toy_magic_3
* x808	10T_1x8_magic_47/10T_toy_magic_5
* x809	10T_1x8_magic_71/10T_toy_magic_3
* x810	10T_1x8_magic_100/10T_toy_magic_0
* x811	10T_1x8_magic_125/10T_toy_magic_2
* x812	10T_1x8_magic_86/10T_toy_magic_1
* x813	10T_1x8_magic_85/10T_toy_magic_2
* x814	10T_1x8_magic_92/10T_toy_magic_7
* x815	10T_1x8_magic_101/10T_toy_magic_2
* x816	10T_1x8_magic_71/10T_toy_magic_7
* x817	10T_1x8_magic_22/10T_toy_magic_5
* x818	10T_1x8_magic_29/10T_toy_magic_3
* x819	10T_1x8_magic_101/10T_toy_magic_3
* x820	10T_1x8_magic_37/10T_toy_magic_2
* x821	10T_1x8_magic_78/10T_toy_magic_1
* x822	10T_1x8_magic_69/10T_toy_magic_3
* x823	10T_1x8_magic_80/10T_toy_magic_6
* x824	10T_1x8_magic_91/10T_toy_magic_3
* x825	10T_1x8_magic_11/10T_toy_magic_0
* x826	10T_1x8_magic_93/10T_toy_magic_7
* x827	10T_1x8_magic_30/10T_toy_magic_3
* x828	10T_1x8_magic_35/10T_toy_magic_6
* x829	10T_1x8_magic_101/10T_toy_magic_0
* x830	10T_1x8_magic_40/10T_toy_magic_0
* x831	10T_1x8_magic_118/10T_toy_magic_1
* x832	10T_1x8_magic_42/10T_toy_magic_6
* x833	10T_1x8_magic_25/10T_toy_magic_6
* x834	10T_1x8_magic_89/10T_toy_magic_7
* x835	10T_1x8_magic_103/10T_toy_magic_5
* x836	10T_1x8_magic_92/10T_toy_magic_4
* x837	10T_1x8_magic_76/10T_toy_magic_5
* x838	10T_1x8_magic_0/10T_toy_magic_5
* x839	10T_1x8_magic_113/10T_toy_magic_3
* x840	10T_1x8_magic_105/10T_toy_magic_3
* x841	10T_1x8_magic_41/10T_toy_magic_6
* x842	10T_1x8_magic_64/10T_toy_magic_3
* x843	10T_1x8_magic_48/10T_toy_magic_4
* x844	10T_1x8_magic_20/10T_toy_magic_5
* x845	10T_1x8_magic_101/10T_toy_magic_5
* x846	10T_1x8_magic_93/10T_toy_magic_4
* x847	10T_1x8_magic_74/10T_toy_magic_5
* x848	10T_1x8_magic_1/10T_toy_magic_5
* x849	10T_1x8_magic_53/10T_toy_magic_2
* x850	10T_1x8_magic_105/10T_toy_magic_0
* x851	10T_1x8_magic_111/10T_toy_magic_3
* x852	10T_1x8_magic_104/10T_toy_magic_3
* x853	10T_1x8_magic_39/10T_toy_magic_6
* x854	10T_1x8_magic_73/10T_toy_magic_3
* x855	10T_1x8_magic_89/10T_toy_magic_4
* x856	10T_1x8_magic_59/10T_toy_magic_3
* x857	10T_1x8_magic_2/10T_toy_magic_1
* x858	10T_1x8_magic_92/10T_toy_magic_1
* x859	10T_1x8_magic_52/10T_toy_magic_2
* x860	10T_1x8_magic_9/10T_toy_magic_2
* x861	10T_1x8_magic_104/10T_toy_magic_0
* x862	10T_1x8_magic_102/10T_toy_magic_6
* x863	10T_1x8_magic_74/10T_toy_magic_3
* x864	10T_1x8_magic_70/10T_toy_magic_5
* x865	10T_1x8_magic_13/10T_toy_magic_2
* x866	10T_1x8_magic_43/10T_toy_magic_0
* x867	10T_1x8_magic_1/10T_toy_magic_3
* x868	10T_1x8_magic_44/10T_toy_magic_3
* x869	10T_1x8_magic_58/10T_toy_magic_3
* x870	10T_1x8_magic_93/10T_toy_magic_1
* x871	10T_1x8_magic_13/10T_toy_magic_7
* x872	10T_1x8_magic_31/10T_toy_magic_2
* x873	10T_1x8_magic_54/10T_toy_magic_0
* x874	10T_1x8_magic_100/10T_toy_magic_6
* x875	10T_1x8_magic_68/10T_toy_magic_5
* x876	10T_1x8_magic_12/10T_toy_magic_2
* x877	10T_1x8_magic_86/10T_toy_magic_5
* x878	10T_1x8_magic_85/10T_toy_magic_7
* x879	10T_1x8_magic_90/10T_toy_magic_4
* x880	10T_1x8_magic_78/10T_toy_magic_5
* x881	10T_1x8_magic_100/10T_toy_magic_1
* x882	10T_1x8_magic_37/10T_toy_magic_7
* x883	10T_1x8_magic_17/10T_toy_magic_1
* x884	10T_1x8_magic_84/10T_toy_magic_7
* x885	10T_1x8_magic_8/10T_toy_magic_6
* x886	10T_1x8_magic_12/10T_toy_magic_7
* x887	10T_1x8_magic_73/10T_toy_magic_0
* x888	10T_1x8_magic_59/10T_toy_magic_0
* x889	10T_1x8_magic_107/10T_toy_magic_3
* x890	10T_1x8_magic_91/10T_toy_magic_4
* x891	10T_1x8_magic_61/10T_toy_magic_5
* x892	10T_1x8_magic_28/10T_toy_magic_4
* x893	10T_1x8_magic_22/10T_toy_magic_7
* x894	10T_1x8_magic_40/10T_toy_magic_6
* x895	10T_1x8_magic_118/10T_toy_magic_5
* x896	10T_1x8_magic_25/10T_toy_magic_3
* x897	10T_1x8_magic_89/10T_toy_magic_2
* x898	10T_1x8_magic_106/10T_toy_magic_3
* x899	10T_1x8_magic_40/10T_toy_magic_7
* x900	10T_1x8_magic_88/10T_toy_magic_4
* x901	10T_1x8_magic_85/10T_toy_magic_4
* x902	10T_1x8_magic_60/10T_toy_magic_5
* x903	10T_1x8_magic_112/10T_toy_magic_1
* x904	10T_1x8_magic_49/10T_toy_magic_2
* x905	10T_1x8_magic_26/10T_toy_magic_3
* x906	10T_1x8_magic_87/10T_toy_magic_2
* x907	10T_1x8_magic_103/10T_toy_magic_3
* x908	10T_1x8_magic_36/10T_toy_magic_7
* x909	10T_1x8_magic_63/10T_toy_magic_1
* x910	10T_1x8_magic_100/10T_toy_magic_2
* x911	10T_1x8_magic_110/10T_toy_magic_1
* x912	10T_1x8_magic_48/10T_toy_magic_2
* x913	10T_1x8_magic_23/10T_toy_magic_3
* x914	10T_1x8_magic_72/10T_toy_magic_1
* x915	10T_1x8_magic_62/10T_toy_magic_1
* x916	10T_1x8_magic_6/10T_toy_magic_1
* x917	10T_1x8_magic_92/10T_toy_magic_5
* x918	10T_1x8_magic_103/10T_toy_magic_0
* x919	10T_1x8_magic_38/10T_toy_magic_0
* x920	10T_1x8_magic_115/10T_toy_magic_7
* x921	10T_1x8_magic_47/10T_toy_magic_2
* x922	10T_1x8_magic_72/10T_toy_magic_7
* x923	10T_1x8_magic_28/10T_toy_magic_6
* x924	10T_1x8_magic_66/10T_toy_magic_1
* x925	10T_1x8_magic_15/10T_toy_magic_4
* x926	10T_1x8_magic_27/10T_toy_magic_1
* x927	10T_1x8_magic_7/10T_toy_magic_1
* x928	10T_1x8_magic_93/10T_toy_magic_5
* x929	10T_1x8_magic_45/10T_toy_magic_5
* x930	10T_1x8_magic_54/10T_toy_magic_6
* x931	10T_1x8_magic_84/10T_toy_magic_4
* x932	10T_1x8_magic_67/10T_toy_magic_1
* x933	10T_1x8_magic_77/10T_toy_magic_2
* x934	10T_1x8_magic_100/10T_toy_magic_5
* x935	10T_1x8_magic_42/10T_toy_magic_4
* x936	10T_1x8_magic_66/10T_toy_magic_2
* x937	10T_1x8_magic_108/10T_toy_magic_0
* x938	10T_1x8_magic_46/10T_toy_magic_5
* x939	10T_1x8_magic_99/10T_toy_magic_3
* x940	10T_1x8_magic_0/10T_toy_magic_2
* x941	10T_1x8_magic_45/10T_toy_magic_2
* x942	10T_1x8_magic_21/10T_toy_magic_3
* x943	10T_1x8_magic_117/10T_toy_magic_2
* x944	10T_1x8_magic_97/10T_toy_magic_3
* x945	10T_1x8_magic_126/10T_toy_magic_6
* x946	10T_1x8_magic_46/10T_toy_magic_2
* x947	10T_1x8_magic_87/10T_toy_magic_7
* x948	10T_1x8_magic_102/10T_toy_magic_1
* x949	10T_1x8_magic_89/10T_toy_magic_0
* x950	10T_1x8_magic_86/10T_toy_magic_7
* x951	10T_1x8_magic_124/10T_toy_magic_6
* x952	10T_1x8_magic_48/10T_toy_magic_7
* x953	10T_1x8_magic_4/10T_toy_magic_4
* x954	10T_1x8_magic_6/10T_toy_magic_5
* x955	10T_1x8_magic_90/10T_toy_magic_2
* x956	10T_1x8_magic_115/10T_toy_magic_2
* x957	10T_1x8_magic_38/10T_toy_magic_6
* x958	10T_1x8_magic_114/10T_toy_magic_4
* x959	10T_1x8_magic_47/10T_toy_magic_7
* x960	10T_1x8_magic_37/10T_toy_magic_4
* x961	10T_1x8_magic_14/10T_toy_magic_4
* x962	10T_1x8_magic_87/10T_toy_magic_4
* x963	10T_1x8_magic_7/10T_toy_magic_5
* x964	10T_1x8_magic_91/10T_toy_magic_2
* x965	10T_1x8_magic_29/10T_toy_magic_2
* x966	10T_1x8_magic_15/10T_toy_magic_3
* x967	10T_1x8_magic_113/10T_toy_magic_2
* x968	10T_1x8_magic_107/10T_toy_magic_1
* x969	10T_1x8_magic_25/10T_toy_magic_0
* x970	10T_1x8_magic_30/10T_toy_magic_2
* x971	10T_1x8_magic_111/10T_toy_magic_2
* x972	10T_1x8_magic_106/10T_toy_magic_1
* x973	10T_1x8_magic_34/10T_toy_magic_4
* x974	10T_1x8_magic_98/10T_toy_magic_7
* x975	10T_1x8_magic_4/10T_toy_magic_6
* x976	10T_1x8_magic_118/10T_toy_magic_7
* x977	10T_1x8_magic_14/10T_toy_magic_6
* x978	10T_1x8_magic_102/10T_toy_magic_5
* x979	10T_1x8_magic_89/10T_toy_magic_6
* x980	10T_1x8_magic_43/10T_toy_magic_4
* x981	10T_1x8_magic_66/10T_toy_magic_7
* x982	10T_1x8_magic_24/10T_toy_magic_3
* x983	10T_1x8_magic_19/10T_toy_magic_0
* x984	10T_1x8_magic_119/10T_toy_magic_1
* x985	10T_1x8_magic_113/10T_toy_magic_7
* x986	10T_1x8_magic_107/10T_toy_magic_5
* x987	10T_1x8_magic_115/10T_toy_magic_0
* x988	10T_1x8_magic_2/10T_toy_magic_6
* x989	10T_1x8_magic_112/10T_toy_magic_7
* x990	10T_1x8_magic_111/10T_toy_magic_7
* x991	10T_1x8_magic_106/10T_toy_magic_5
* x992	10T_1x8_magic_110/10T_toy_magic_7
* x993	10T_1x8_magic_3/10T_toy_magic_6
* x994	10T_1x8_magic_41/10T_toy_magic_1
* x995	10T_1x8_magic_49/10T_toy_magic_4
* x996	10T_1x8_magic_117/10T_toy_magic_4
* x997	10T_1x8_magic_39/10T_toy_magic_1
* x998	10T_1x8_magic_33/10T_toy_magic_0
* x999	10T_1x8_magic_35/10T_toy_magic_4
* x1000	10T_1x8_magic_88/10T_toy_magic_3
* x1001	10T_1x8_magic_28/10T_toy_magic_0
* x1002	10T_1x8_magic_118/10T_toy_magic_2
* x1003	10T_1x8_magic_119/10T_toy_magic_5
* x1004	10T_1x8_magic_56/10T_toy_magic_4
* x1005	10T_1x8_magic_59/10T_toy_magic_5
* x1006	10T_1x8_magic_33/10T_toy_magic_5
* x1007	10T_1x8_magic_55/10T_toy_magic_4
* x1008	10T_1x8_magic_37/10T_toy_magic_3
* x1009	10T_1x8_magic_116/10T_toy_magic_2
* x1010	10T_1x8_magic_114/10T_toy_magic_3
* x1011	10T_1x8_magic_4/10T_toy_magic_0
* x1012	10T_1x8_magic_14/10T_toy_magic_0
* x1013	10T_1x8_magic_20/10T_toy_magic_1
* x1014	10T_1x8_magic_84/10T_toy_magic_0
* x1015	10T_1x8_magic_64/10T_toy_magic_5
* x1016	10T_1x8_magic_77/10T_toy_magic_6
* x1017	10T_1x8_magic_117/10T_toy_magic_3
* x1018	10T_1x8_magic_86/10T_toy_magic_0
* x1019	10T_1x8_magic_105/10T_toy_magic_6
* x1020	10T_1x8_magic_104/10T_toy_magic_6
* x1021	10T_1x8_magic_92/10T_toy_magic_2
* x1022	10T_1x8_magic_93/10T_toy_magic_2
* x1023	10T_1x8_magic_119/10T_toy_magic_2
